13 
 
Ne -4.222470011427001 2.1777766005407324 5.324733535424192 
Ne -0.1715178430763047 -7.151265983961412 2.815105933727602 
Ne 1.2742073630730364 -4.050186561917438 -2.5082568002017918 
Ne -4.00506462025489 -5.405782582139401 -1.0417944692842172 
Ne -6.539857423301191 -0.266145406850454 0.37475376972435753 
Ne -0.7781161005053526 -2.413598298908825 7.333877492252917 
Ne 1.7971164357800637 2.3529231432493383 4.6365724784691125 
Ne -5.408081370841845 -4.0016223408023235 4.243838696269692 
Ne -2.5841860587049448 4.506190555221745 0.275426463328169 
Ne -2.614419189604539 -0.24885294349838902 -4.041204317903046 
Ne -1.2726151010782378 -1.4805795307335154 1.7882886016826172 
Ne 3.909535770887405 -2.9271989655157045 2.8723035233017025 
Ne 2.7431636813446474 1.7340177994198778 -0.8275952336794484 
13 
 
Ne -0.030012501812154868 -0.5061325932831959 -1.5874153854646482 
Ne -2.601637218768668 -4.8822621557724375 -3.5684486039009893 
Ne 5.69361859081889 -0.6959051315827735 -1.3300317183870016 
Ne 1.3186250445983476 -5.420736021664685 0.4297267067517424 
Ne 2.751754688676463 -0.5103621512276643 3.6942827582223052 
Ne -0.792710154032184 -0.09078086233392085 -7.334028803743844 
Ne -5.5323133782849485 0.5856634022158419 -2.068295813044149 
Ne 2.7921337113034412 4.295979832513037 -0.19572992832512978 
Ne 2.9061866883440017 -3.9270579514308084 -5.38281728576039 
Ne 3.660319745059178 2.903591455329232 -5.345982045997773 
Ne -1.462650198062044 4.543980824336338 -3.922080656089263 
Ne -2.0786099485052336 2.606796592822823 2.406357275839125 
Ne -3.464760090068443 -3.203291499862971 2.2783970581412922 
13 
 
Ne 1.8778457202926924 3.5563761639841633 0.3876079569724363 
Ne 4.684749950190521 -2.3456716243327733 -3.2834159065636954 
Ne 5.669538564512617 5.756702548803023 -2.889920451893812 
Ne -3.6750269742907045 1.9473964096289444 0.689004041530168 
Ne -0.2867735333994094 -5.947744896196446 -2.671733928310281 
Ne 1.201188465140483 -2.3050256642848717 2.0728558256344596 
Ne -6.1365385810240305 -3.1765957899010746 -1.3196319262199383 
Ne 0.15584004427119566 -3.4631055689519257 -8.316679866093358 
Ne -0.6406960048994532 -0.2452576714745745 -3.652548922436236 
Ne -5.108668264986296 2.7467504946503976 -4.9193946653160125 
Ne -5.479227705289784 -2.5604753253376913 -7.2664470039076425 
Ne 0.2837665149439858 5.581037215061338 -4.537358544666518 
Ne 3.6309667659020426 1.3074397239858295 -8.168814279028366 
13 
 
Ne 1.8778457202926924 3.5563761639841633 0.3876079569724363 
Ne 4.684749950190521 -2.3456716243327733 -3.2834159065636954 
Ne 5.669538564512617 5.756702548803023 -2.889920451893812 
Ne -3.6750269742907045 1.9473964096289444 0.689004041530168 
Ne -0.2867735333994094 -5.947744896196446 -2.671733928310281 
Ne 1.201188465140483 -2.3050256642848717 2.0728558256344596 
Ne -6.1365385810240305 -3.1765957899010746 -1.3196319262199383 
Ne 0.15584004427119566 -3.4631055689519257 -8.316679866093358 
Ne -0.6406960048994532 -0.2452576714745745 -3.652548922436236 
Ne -5.108668264986296 2.7467504946503976 -4.9193946653160125 
Ne -5.479227705289784 -2.5604753253376913 -7.2664470039076425 
Ne 0.2837665149439858 5.581037215061338 -4.537358544666518 
Ne 3.6309667659020426 1.3074397239858295 -8.168814279028366 
13 
 
Ne 2.379872559082237 -1.008282959535243 -4.605859379026367 
Ne -0.732401369127195 1.882511455122569 -0.025179861441407825 
Ne -1.9632106801140463 2.8685864532824272 -5.499046734690551 
Ne 0.5568817814161282 -9.440831868804338 1.446259937450212 
Ne 5.304624972080942 -6.056596260429539 0.16398574502906987 
Ne -1.1098475962135894 -0.5924565930355659 5.375214083357453 
Ne -2.7513481056907048 -2.8016415445941516 -4.546254773478884 
Ne -5.508572430022795 -1.0385318900616995 1.1119953942841498 
Ne 4.162199824553737 -0.16409406336254057 0.581958611146312 
Ne 1.256297284145727 -7.027456303686721 -3.898250571262581 
Ne -7.412780364665409 0.3832478722792507 -4.225640636866453 
Ne -4.7162896420318985 -7.41037586681556 -1.8009309974757486 
Ne -0.14490062179988006 -3.7014548513141787 0.4058153573551502 
13 
 
Ne -5.286901583968094 -2.818559931501924 5.188947721793311 
Ne 4.463002413709884 0.2967277823757139 1.8974221939079559 
Ne -4.785826588416931 -4.007083894942214 -2.7521649952708964 
Ne -1.1251532716752919 2.978545980054343 5.606446742037398 
Ne 1.2903701986148237 4.031977327887366 -0.4490001929898392 
Ne 3.0961796318473778 -5.349388919071798 0.09928667760856702 
Ne 0.6631380962440058 8.217362979044303 3.7360274492810013 
Ne -1.6210844388235006 -2.2696795082213486 9.544881549005881 
Ne 0.9835331703040814 -4.016821660378586 5.069585266895315 
Ne -0.9688482734377667 -1.1085849729372863 0.7285682670247813 
Ne -5.854194900802177 1.8365765240082337 -0.8369622801677402 
Ne 0.17707423601622507 -1.969478113328283 -4.474410085304947 
Ne -1.3816710578264966 -8.86427699848858 1.9865876280095847 
13 
 
Ne -5.286901583968094 -2.818559931501924 5.188947721793311 
Ne 4.463002413709884 0.2967277823757139 1.8974221939079559 
Ne -4.785826588416931 -4.007083894942214 -2.7521649952708964 
Ne -1.1251532716752919 2.978545980054343 5.606446742037398 
Ne 1.2903701986148237 4.031977327887366 -0.4490001929898392 
Ne 3.0961796318473778 -5.349388919071798 0.09928667760856702 
Ne 0.6631380962440058 8.217362979044303 3.7360274492810013 
Ne -1.6210844388235006 -2.2696795082213486 9.544881549005881 
Ne 0.9835331703040814 -4.016821660378586 5.069585266895315 
Ne -0.9688482734377667 -1.1085849729372863 0.7285682670247813 
Ne -5.854194900802177 1.8365765240082337 -0.8369622801677402 
Ne 0.17707423601622507 -1.969478113328283 -4.474410085304947 
Ne -1.3816710578264966 -8.86427699848858 1.9865876280095847 
13 
 
Ne 1.8778457202926924 3.5563761639841633 0.3876079569724363 
Ne 4.684749950190521 -2.3456716243327733 -3.2834159065636954 
Ne 5.669538564512617 5.756702548803023 -2.889920451893812 
Ne -3.6750269742907045 1.9473964096289444 0.689004041530168 
Ne -0.2867735333994094 -5.947744896196446 -2.671733928310281 
Ne 1.201188465140483 -2.3050256642848717 2.0728558256344596 
Ne -6.1365385810240305 -3.1765957899010746 -1.3196319262199383 
Ne 0.15584004427119566 -3.4631055689519257 -8.316679866093358 
Ne -0.6406960048994532 -0.2452576714745745 -3.652548922436236 
Ne -5.108668264986296 2.7467504946503976 -4.9193946653160125 
Ne -5.479227705289784 -2.5604753253376913 -7.2664470039076425 
Ne 0.2837665149439858 5.581037215061338 -4.537358544666518 
Ne 3.6309667659020426 1.3074397239858295 -8.168814279028366 
13 
 
Ne -5.715722055463664 2.729076185629453 -4.082169824625913 
Ne 0.7451752237422056 -3.9254462028254813 -5.940961028355752 
Ne 4.556903388267745 5.173355512759557 -3.0690243857589885 
Ne 4.278846326083748 2.786637648370365 2.056395136362372 
Ne -3.091248652385507 -1.902338365042203 -1.4595704294416298 
Ne 0.4436621421479291 7.6691229251001625 -5.382837537952648 
Ne 1.1121497090587897 -1.672957201595896 3.803490510793223 
Ne -5.303839211753079 2.1245346249493116 2.6161133076839405 
Ne 3.3299534977126073 -0.8724515093341434 -1.6357548793631789 
Ne -0.4673411954366109 1.6750490478834243 -5.895150902915414 
Ne -0.3337201272094338 4.080059519749026 5.332171109365516 
Ne -3.625350533358659 7.7060236158683635 -0.5668365874656767 
Ne -0.5937234744981074 3.029555347019721 -0.7068077348138312 
13 
 
Ne 6.143396488967776 -2.764858512933169 -0.002859110327226133 
Ne -0.15379208652139137 -0.12391711074509154 -2.9839372811109137 
Ne -4.550479360090425 0.4880678455860026 1.1580069036656953 
Ne -2.069506769035471 -2.011846760742961 5.7790451825155325 
Ne 1.8191589075410777 1.4477594637915863 7.797257116218177 
Ne -2.5366094524141327 4.555747815456726 4.678172822102632 
Ne 4.0269262913365775 6.182029074162573 4.1887217572218995 
Ne -1.2052457983496079 -4.658341529601355 0.8408393409822803 
Ne 5.282060699610263 3.3289397335512483 -0.7507871662110414 
Ne 7.500488236333062 0.8463522678951683 4.081915667656494 
Ne 1.2782104639026042 0.8936618146895148 2.1359196593689522 
Ne 3.311791377354888 -3.445935644947892 5.064620226165939 
Ne 0.37601752170651676 6.212017603804211 -0.27744103613893784 
