13 
 
Ne -4.032576915136586 -7.961653008339012 -0.17626308849304273 
Ne -0.2062556553532579 -2.9876385224773765 -2.2948682254714377 
Ne 2.5858078998058147 1.5240169951372118 -0.6752653540537614 
Ne 2.132905243790804 -5.008522519927705 -7.10714621549682 
Ne -1.6899078064397017 -0.4651261453252443 2.3156569789305363 
Ne 1.919257633921647 6.631520278476667 -2.9754094698045845 
Ne -3.221749351046279 -6.323892469926514 -6.280830931053059 
Ne -2.718449739392412 2.7318779247505294 -3.092913313485983 
Ne 2.073266877560318 -8.257391042871854 -2.264983928067309 
Ne 3.26809349608231 1.2965280713957532 -6.599004170613082 
Ne -1.9733174664689495 -0.946310027906027 -7.735263378142485 
Ne -5.74405694777579 -2.80097333754213 -2.656755902130084 
Ne 5.643548134570766 -2.74763999050545 0.4502955866017874 
13 
 
Ne 6.143396488967776 -2.764858512933169 -0.002859110327226133 
Ne -0.15379208652139137 -0.12391711074509154 -2.9839372811109137 
Ne -4.550479360090425 0.4880678455860026 1.1580069036656953 
Ne -2.069506769035471 -2.011846760742961 5.7790451825155325 
Ne 1.8191589075410777 1.4477594637915863 7.797257116218177 
Ne -2.5366094524141327 4.555747815456726 4.678172822102632 
Ne 4.0269262913365775 6.182029074162573 4.1887217572218995 
Ne -1.2052457983496079 -4.658341529601355 0.8408393409822803 
Ne 5.282060699610263 3.3289397335512483 -0.7507871662110414 
Ne 7.500488236333062 0.8463522678951683 4.081915667656494 
Ne 1.2782104639026042 0.8936618146895148 2.1359196593689522 
Ne 3.311791377354888 -3.445935644947892 5.064620226165939 
Ne 0.37601752170651676 6.212017603804211 -0.27744103613893784 
13 
 
Ne 0.06912969404283932 1.2900086943887068 -9.477806146613668 
Ne 5.548817947978461 2.952604194439788 -1.528560729611603 
Ne -3.834673187316534 4.966789927057677 -0.5854080908006023 
Ne 4.667252552913898 -0.09601625598229048 -6.462641880636468 
Ne -0.5694809359817223 -2.81117593839932 -5.608516451226494 
Ne 1.5693820305511863 7.309533594184195 -1.2515974060531558 
Ne 0.430086614257239 2.407118419923082 -3.5469544648964053 
Ne -4.797616894929314 1.7115606877259897 -5.793104051439172 
Ne 1.0735889878297462 2.5207832940265824 2.2249499333863456 
Ne -2.970767426310309 -1.0320177574151408 -0.6616044006882538 
Ne 3.9351252388701026 5.892842598674068 -6.4173434818399935 
Ne 2.815891836235925 -2.2107630920095054 -0.9668510575666206 
Ne -2.0869953617827735 7.0123177052343655 -5.973314780016663 
13 
 
Ne -0.7764713410136141 -1.9558408956987066 -6.359421648068927 
Ne 1.9698180411077129 -0.9851882992809322 3.5500421296110023 
Ne 0.3550683003888332 1.3956968464058852 -1.8526637616975865 
Ne -3.0876092719892223 -2.9503738932128387 -1.2833915876988042 
Ne 2.420748075558132 5.117583917982777 2.1340309469111336 
Ne -5.266396230600358 2.5463646291915714 -2.5369373944070492 
Ne -1.7009252969556063 6.570012574617553 -1.101886448620985 
Ne 3.9938523963964188 5.702293150240279 -3.294482814267652 
Ne 6.0526889542208515 1.0087310037438544 -0.7953765369555894 
Ne 2.613423769506047 -3.7780028711364135 -1.6751061063160952 
Ne 4.008724354123202 0.8681201995410417 -6.099806694926207 
Ne -2.7327865281226233 2.1277990639109476 2.8125376798472064 
Ne -0.8768493969831512 4.502787085243163 -6.6052484489452254 
13 
 
Ne 2.4103666978496574 3.1165270858498153 -2.073512477371208 
Ne -2.936838433593646 0.884676097448973 -2.8474911409282773 
Ne 3.1848318735532857 5.67658310631859 3.09213491331785 
Ne 1.2862070196648674 -3.0436892082479945 -1.3036350618748733 
Ne -2.3296984447103215 6.323332154221615 -0.5628896199048787 
Ne 5.247584707742905 -0.6189797264324138 2.3846376416060715 
Ne 2.2093757414468596 1.8809442592166026 7.140783210164815 
Ne 0.47580372443347446 -3.851281324533723 5.470237618549913 
Ne -6.566930112083488 2.567138239924746 2.5272888328441567 
Ne -3.6734203225882647 0.43765506051681563 7.100210645181307 
Ne -3.966292245522467 -2.9865804880052536 1.9241744648029526 
Ne -0.534049576064898 1.1437158866474282 2.2855967013001965 
Ne -1.906669810422754 5.951736885667973 5.51932558955602 
13 
 
Ne 2.4865573249610424 0.2688767138895231 4.454282654536125 
Ne 0.3263167229178946 -2.147715550351308 -0.42266751912341055 
Ne -5.975040029357156 -0.9069541408654989 -0.5615449981087652 
Ne 3.4257143170588447 2.66126913717545 -1.311032192309804 
Ne -1.7399679124126406 2.712170641859048 1.5376089050260318 
Ne -0.30785748192936846 7.303424516379699 -1.5556088492486628 
Ne -5.87274234489265 4.950882514975085 -1.7901580238546617 
Ne -1.6815928150322255 2.4119833375327433 -4.255380310336938 
Ne -3.751946990215654 7.50602353915516 3.874833376787317 
Ne 2.116649617937436 5.807859204771713 4.508150371355787 
Ne -7.0583546946965 2.5044304045786165 4.100329439848235 
Ne -2.7619976777248136 -2.188505064905409 4.22695637608466 
Ne -2.206507108979137 2.8037990207140355 7.147281074602089 
13 
 
Ne -0.29394723970573056 5.695974513657014 -2.3272715074636903 
Ne 6.292240418451416 -4.429601612476263 -3.758260702510958 
Ne 4.290249677611897 3.6852568169028093 -6.0978940116066225 
Ne -1.4702478449876502 1.9389456050288427 -6.26745668279419 
Ne 4.468489471209675 4.791866282564936 0.8378438377586337 
Ne -1.4696977533612336 -4.350176318209301 0.7337972798526939 
Ne -1.514171684015257 1.7975774518803596 1.6845434526143541 
Ne 3.6898422439739975 -1.628676162177507 -8.25798221495213 
Ne -0.8625352262705575 -4.747329171117227 -5.284679254362183 
Ne -0.30595583189464276 7.6601831590093985 3.462872176565213 
Ne 2.6231846706793647 -0.2869784278442382 -2.0012361360766864 
Ne 7.774454491263582 1.2650521484368997 -2.449968160246335 
Ne -4.403764999133144 -0.30041610067146285 -2.233157106348745 
13 
 
Ne 1.710441717759567 5.985018088770242 -0.6436779048144681 
Ne 4.489908713204653 -0.8554699227269871 5.712369095833673 
Ne 0.28653476558939106 1.0922393564162407 2.4613790006647127 
Ne 1.502416177807957 0.7127805929628928 -3.051388220932981 
Ne -2.038917713205265 6.208511323222119 4.38295104172939 
Ne -4.89344427019218 0.7691704911966671 4.315716824695682 
Ne -3.877106152957732 3.3451500352918506 -0.9404349456609316 
Ne 5.986858042507729 1.4857455907724255 0.3305726942967081 
Ne 2.8396580647751004 -3.6639397703456758 1.0333335255398155 
Ne 3.638595263686555 4.715592759264476 4.960255202605114 
Ne -0.20443190680959084 1.2990759701932835 8.108410316876169 
Ne -2.7658110116514893 -2.582646337493975 -0.18039555439822647 
Ne -1.1530096172568178 -3.749242682647186 4.979278610347519 
13 
 
Ne -3.9281160791625305 3.839055618500488 -2.516014097245557 
Ne -4.258339747338374 -2.971799564791766 -0.17391506277968105 
Ne 5.466944423829424 2.5269484442705554 0.7710243415613525 
Ne 0.5696337903613449 -5.2740472255394 -2.2271901355507975 
Ne 4.323280830922098 -2.9356226715940075 2.11649551788246 
Ne 4.665458578639074 -1.365561933731351 -3.4264659004327522 
Ne 2.0716515504473105 4.6890912652450565 -4.245007290779546 
Ne 0.4962975787502977 0.7029856584435964 0.05724990737042481 
Ne -4.582367771228361 2.549650149484367 3.215974475264452 
Ne -1.189431477069953 6.732741361955998 1.7480553343515595 
Ne -0.6411602396984696 -0.33123317414192066 -5.219186029247844 
Ne -2.1129283197545203 -2.075766507283909 5.294616270113628 
Ne 2.1879174037553435 2.732674610848971 5.284237101104884 
13 
 
Ne -4.032576915136586 -7.961653008339012 -0.17626308849304273 
Ne -0.2062556553532579 -2.9876385224773765 -2.2948682254714377 
Ne 2.5858078998058147 1.5240169951372118 -0.6752653540537614 
Ne 2.132905243790804 -5.008522519927705 -7.10714621549682 
Ne -1.6899078064397017 -0.4651261453252443 2.3156569789305363 
Ne 1.919257633921647 6.631520278476667 -2.9754094698045845 
Ne -3.221749351046279 -6.323892469926514 -6.280830931053059 
Ne -2.718449739392412 2.7318779247505294 -3.092913313485983 
Ne 2.073266877560318 -8.257391042871854 -2.264983928067309 
Ne 3.26809349608231 1.2965280713957532 -6.599004170613082 
Ne -1.9733174664689495 -0.946310027906027 -7.735263378142485 
Ne -5.74405694777579 -2.80097333754213 -2.656755902130084 
Ne 5.643548134570766 -2.74763999050545 0.4502955866017874 
