38 
 
Ne -1.2835737191244818 6.409862605005894 -5.3809593643423455 
Ne -4.419745766128655 3.6793466192134145 10.281593954707954 
Ne 6.925626631630119 3.8004377590986196 6.346160063313043 
Ne 4.184891186633531 -1.6515268634603966 -3.489254421741224 
Ne -4.585656893015388 -1.4961508331053088 0.17694266296240385 
Ne -0.43984553760691314 -6.250291032473425 0.23514199013757195 
Ne -9.951962136586628 0.914457270843849 -0.0016431942617357032 
Ne -6.327575326671162 -6.6285277105571305 1.9720723427239004 
Ne 3.7215947113914485 9.255607191763314 -1.895199130805716 
Ne -4.4305646477105425 -5.1954526280278435 -3.6236744374466783 
Ne 0.8446183272923751 5.223302515415831 8.20245006398618 
Ne 3.0342357759138996 3.6493850312426592 -2.414018316439092 
Ne -2.03886048156383 1.7815672049282598 5.210295763271423 
Ne -1.1944529974998783 -3.9274726652259275 5.091649658343876 
Ne 7.1710390875245915 6.797761493452693 1.386398171746257 
Ne 0.94560008321813 -0.6561585587196745 0.7166171349499832 
Ne 6.47129056949956 1.1255029439924957 1.2390005658858554 
Ne -1.2735924397866625 -0.6875059371944626 -4.4736267419874105 
Ne -2.870958141020202 -4.0745096017758815 -8.8821262518054 
Ne 2.477207410531505 1.4707306308547687 -8.072085609311452 
Ne -3.2114749196749326 2.5421126623572 -8.909250488118083 
Ne -7.396232893655812 -0.9554948173533501 -5.423139850077935 
Ne 8.825765232722812 4.364283445767549 -3.741468300598436 
Ne 4.682095446091978 -4.9396067916214745 2.4234386684319267 
Ne 3.56164727338071 -0.3909993816495029 6.247841330622723 
Ne -0.1664544748119125 -0.6182532879954584 10.540507723977594 
Ne 2.329625989711376 4.284106446002125 3.095847087834919 
Ne -7.021136465077559 7.988211879719233 0.09334072591934765 
Ne 1.0603100809415789 -6.57231167785923 -5.22199014317109 
Ne -6.163182018586166 4.2267393747802275 -4.452077901814573 
Ne -2.828566425014528 4.056517074391808 -0.024889690003154163 
Ne 4.320632191620124 7.010423392624305 -6.8222629987831915 
Ne 2.4997575800135867 10.056659019911407 3.29851842228342 
Ne -7.6228472005356815 3.862752916473707 4.013899761954278 
Ne -3.0783950341727975 7.906831622351374 4.471155670054408 
Ne -10.672012538256062 -4.5988532843526215 -0.8693553772032793 
Ne -1.8133384856643735 10.399648254517112 -0.6165302899464155 
Ne -7.135934561502423 -1.6367365976096424 5.036002606142191 
