13 
 
Ne 2.7560535487832962 -0.9402833391992671 -1.586611563531798 
Ne 2.586087405099599 -5.793501105683481 1.2093901155268156 
Ne 6.479755153021628 -0.006310310935050328 -6.221461569164429 
Ne 1.8673758432762706 3.809326330687152 1.7412743445594734 
Ne 0.8206118646268222 -0.6158781522266022 -6.894154292704396 
Ne -0.6462466714448036 -1.1339907375345424 3.0718824472482607 
Ne 2.8789474620587083 4.127061092901099 -4.149865133821321 
Ne -1.5779264554042407 -4.291336153927027 -3.418729127921451 
Ne -2.1504831642768547 1.7061871669690019 -2.0289613326664657 
Ne 7.391646909250286 2.4645966675705804 -1.1791579976895583 
Ne 7.874395471465573 -3.2575559377185885 -0.6543534820468355 
Ne 4.925697290785186 -0.9776674468668056 3.897362023153457 
Ne 4.244841555940501 -5.276920128030008 -4.9153403340061015 
13 
 
Ne 2.379872559082237 -1.008282959535243 -4.605859379026367 
Ne -0.732401369127195 1.882511455122569 -0.025179861441407825 
Ne -1.9632106801140463 2.8685864532824272 -5.499046734690551 
Ne 0.5568817814161282 -9.440831868804338 1.446259937450212 
Ne 5.304624972080942 -6.056596260429539 0.16398574502906987 
Ne -1.1098475962135894 -0.5924565930355659 5.375214083357453 
Ne -2.7513481056907048 -2.8016415445941516 -4.546254773478884 
Ne -5.508572430022795 -1.0385318900616995 1.1119953942841498 
Ne 4.162199824553737 -0.16409406336254057 0.581958611146312 
Ne 1.256297284145727 -7.027456303686721 -3.898250571262581 
Ne -7.412780364665409 0.3832478722792507 -4.225640636866453 
Ne -4.7162896420318985 -7.41037586681556 -1.8009309974757486 
Ne -0.14490062179988006 -3.7014548513141787 0.4058153573551502 
13 
 
Ne 2.7560535487832962 -0.9402833391992671 -1.586611563531798 
Ne 2.586087405099599 -5.793501105683481 1.2093901155268156 
Ne 6.479755153021628 -0.006310310935050328 -6.221461569164429 
Ne 1.8673758432762706 3.809326330687152 1.7412743445594734 
Ne 0.8206118646268222 -0.6158781522266022 -6.894154292704396 
Ne -0.6462466714448036 -1.1339907375345424 3.0718824472482607 
Ne 2.8789474620587083 4.127061092901099 -4.149865133821321 
Ne -1.5779264554042407 -4.291336153927027 -3.418729127921451 
Ne -2.1504831642768547 1.7061871669690019 -2.0289613326664657 
Ne 7.391646909250286 2.4645966675705804 -1.1791579976895583 
Ne 7.874395471465573 -3.2575559377185885 -0.6543534820468355 
Ne 4.925697290785186 -0.9776674468668056 3.897362023153457 
Ne 4.244841555940501 -5.276920128030008 -4.9153403340061015 
13 
 
Ne 2.4103666978496574 3.1165270858498153 -2.073512477371208 
Ne -2.936838433593646 0.884676097448973 -2.8474911409282773 
Ne 3.1848318735532857 5.67658310631859 3.09213491331785 
Ne 1.2862070196648674 -3.0436892082479945 -1.3036350618748733 
Ne -2.3296984447103215 6.323332154221615 -0.5628896199048787 
Ne 5.247584707742905 -0.6189797264324138 2.3846376416060715 
Ne 2.2093757414468596 1.8809442592166026 7.140783210164815 
Ne 0.47580372443347446 -3.851281324533723 5.470237618549913 
Ne -6.566930112083488 2.567138239924746 2.5272888328441567 
Ne -3.6734203225882647 0.43765506051681563 7.100210645181307 
Ne -3.966292245522467 -2.9865804880052536 1.9241744648029526 
Ne -0.534049576064898 1.1437158866474282 2.2855967013001965 
Ne -1.906669810422754 5.951736885667973 5.51932558955602 
13 
 
Ne -0.29394723970573056 5.695974513657014 -2.3272715074636903 
Ne 6.292240418451416 -4.429601612476263 -3.758260702510958 
Ne 4.290249677611897 3.6852568169028093 -6.0978940116066225 
Ne -1.4702478449876502 1.9389456050288427 -6.26745668279419 
Ne 4.468489471209675 4.791866282564936 0.8378438377586337 
Ne -1.4696977533612336 -4.350176318209301 0.7337972798526939 
Ne -1.514171684015257 1.7975774518803596 1.6845434526143541 
Ne 3.6898422439739975 -1.628676162177507 -8.25798221495213 
Ne -0.8625352262705575 -4.747329171117227 -5.284679254362183 
Ne -0.30595583189464276 7.6601831590093985 3.462872176565213 
Ne 2.6231846706793647 -0.2869784278442382 -2.0012361360766864 
Ne 7.774454491263582 1.2650521484368997 -2.449968160246335 
Ne -4.403764999133144 -0.30041610067146285 -2.233157106348745 
13 
 
Ne -3.756879919045485 -4.816515121744445 4.5220050309998 
Ne 2.751512733629602 0.8219387663771153 3.090481186693575 
Ne 0.36395004867941744 -5.859855391175853 1.2655931620342145 
Ne -6.492945768536342 4.422215654253381 1.4259163570157634 
Ne -0.006638384001515063 -1.237270750067303 7.4863472843944106 
Ne -0.877179106953407 3.9699557748823238 -0.7369501938968199 
Ne -2.9327059531894215 -0.3168778215782052 1.331661453068938 
Ne -5.427075983553923 1.872290410794374 -3.394699117717438 
Ne 0.27315287605062977 -1.4984274904118093 -3.1074228849518173 
Ne -4.679876896552417 -5.016368172267704 -1.7380578041778887 
Ne -6.121589526893094 0.7868658526318795 5.969875010791703 
Ne -2.124735808521966 4.835687844345852 5.300504003923518 
Ne -8.158378868083851 -1.6348870475738564 1.1745734899444593 
13 
 
Ne 4.84165480410245 2.009938203410528 -6.990617228174705 
Ne -0.18118910792096002 3.0001278684636192 -4.572889917123745 
Ne 2.502937598055137 -6.269413060697366 -2.0340265386310277 
Ne 4.088642629768033 6.086075146065545 -2.030112998593675 
Ne 0.09606419460758822 3.2304649134537353 1.380391588272636 
Ne -2.0030904241425302 -1.83911476249711 -1.4501218896257195 
Ne 7.104012903293323 -2.804438477224767 -4.981684202448966 
Ne 9.269251853022514 1.7074979271482102 -2.158503656029568 
Ne 5.602780586466297 3.5767825130059645 2.5308183718414825 
Ne 2.181393355119162 -2.370708685791131 2.941143701644264 
Ne 7.430406215659263 -2.592234659401724 1.1174849251791377 
Ne 3.891542059773835 0.3073444236298797 -1.8598001978361445 
Ne 1.28647969538034 -2.30787789125507 -6.062880575161402 
13 
 
Ne -1.9866911544516 -2.9702024742190583 -6.050554926088227 
Ne 1.4762220695298318 -6.925785757417803 2.2385199462963135 
Ne 3.1232268648188786 -6.208942227806412 -4.308502956432721 
Ne -3.841185101122775 -5.251661458817852 2.6937385223509227 
Ne 3.0023073382716827 0.15644295872582234 -4.728305223262397 
Ne -5.6058461969727285 -1.866508969753693 -2.2073938101523947 
Ne 0.9122440453942889 -1.5053098134973553 4.998178166777745 
Ne -2.1662854844999617 2.7799875373184286 -2.8446533399205394 
Ne -3.2701830603418447 -7.256781997713918 -2.6971480335388573 
Ne -2.947540475262066 1.5467761835151872 2.612834558211932 
Ne 2.6930800743546226 2.2446620609524537 0.6327564745732239 
Ne 5.604506954530006 -2.75185676554149 0.6459935626583522 
Ne -0.11893989722000371 -2.2533483460591492 -0.7086220659641739 
13 
 
Ne -0.17777530320836188 -0.20090152304960696 -2.7212632049878462 
Ne 9.046727552341913 -2.2259560157879132 -0.9618743793544408 
Ne -0.5867985941909242 3.260271424889306 2.1697562039327645 
Ne 5.113842023966033 5.602681382763596 3.4778883934313107 
Ne 5.21314455778785 -0.08551253061063094 -4.650912755608618 
Ne 3.555338801141139 -4.883676525340345 -1.4361676754534454 
Ne 4.244556858399777 0.488662596671784 0.6226632112731927 
Ne 8.947644515477876 1.389523170244377 3.851052824147519 
Ne 8.606038664095298 4.054563009733334 -1.2765843651456048 
Ne 6.109845637578108 -3.947798967659764 3.7172993022148564 
Ne 2.9082303344912197 0.5601430545442451 6.1147075922323895 
Ne 0.01668101123057543 -2.9733986577393203 2.7918117908282643 
Ne 3.157142242552457 5.266357947786072 -1.8864250732349734 
13 
 
Ne -3.756879919045485 -4.816515121744445 4.5220050309998 
Ne 2.751512733629602 0.8219387663771153 3.090481186693575 
Ne 0.36395004867941744 -5.859855391175853 1.2655931620342145 
Ne -6.492945768536342 4.422215654253381 1.4259163570157634 
Ne -0.006638384001515063 -1.237270750067303 7.4863472843944106 
Ne -0.877179106953407 3.9699557748823238 -0.7369501938968199 
Ne -2.9327059531894215 -0.3168778215782052 1.331661453068938 
Ne -5.427075983553923 1.872290410794374 -3.394699117717438 
Ne 0.27315287605062977 -1.4984274904118093 -3.1074228849518173 
Ne -4.679876896552417 -5.016368172267704 -1.7380578041778887 
Ne -6.121589526893094 0.7868658526318795 5.969875010791703 
Ne -2.124735808521966 4.835687844345852 5.300504003923518 
Ne -8.158378868083851 -1.6348870475738564 1.1745734899444593 
