38 
 
Ne 1.7246151285677895 5.56656478861429 -10.141266320087716 
Ne -7.37271369249755 2.1586504107467253 1.491698380904307 
Ne 5.665532400189815 -4.6177939926195295 -4.264476222512192 
Ne 1.8113740088724641 -5.245943790072564 -0.0007729590265266595 
Ne 2.7769642847596336 -0.1940019134924068 4.332205908169062 
Ne 8.1155336506679 -2.597460105342864 -0.12320143593809577 
Ne -6.3699229103487545 -2.905642064332454 -1.5642792272289234 
Ne 8.956759200729095 1.6443048305726295 -4.748187650269279 
Ne -3.3155081144421605 2.3626982929903235 5.264643747733858 
Ne 1.8416773818937644 -8.383440289071858 -4.894925122442518 
Ne -4.067632748185169 6.250028734166175 -0.9215413181459976 
Ne 3.3048654979158627 -0.35887251518076313 -1.504373894992101 
Ne -3.641280947504452 6.689377682242628 -6.8015643201640446 
Ne -5.996775500004505 7.100772873071681 4.581314336237134 
Ne -5.540555338974044 1.7928380071183283 -4.367277411283024 
Ne -0.9504803523792875 -2.519543239337428 -4.102373352070076 
Ne 3.464770475125663 0.08804363739855844 -7.188154262934825 
Ne 7.968702292677042 -0.23448617689826176 5.728541730302237 
Ne 5.6700681317581045 -5.361695022009565 4.266959698747994 
Ne -0.5108013518705792 9.358279320795782 3.2540678162018213 
Ne 0.333837312065394 5.973406044917452 7.523772974827257 
Ne 6.590230482286008 -8.771502498362086 -0.5437248707476363 
Ne 5.779474403453841 5.287968191547099 5.593700126085435 
Ne -2.348210036191463 0.47556681773642656 -8.77433754252598 
Ne -3.0953994092164754 -7.305606257106572 -2.134111127109161 
Ne 0.55968877049218 8.908439606499122 -2.64301622906584 
Ne 5.0424875282787 5.503821707650003 -3.7982218265844017 
Ne -5.339207415347939 -4.429832315931416 -6.915270142550212 
Ne -0.12701464596466266 -9.147859679183968 4.028207362831508 
Ne 1.0237766408725673 -4.586033693589798 -9.10281393831821 
Ne -1.7414894550219995 -3.813489326808933 5.009821806783352 
Ne -1.9000271983002264 -0.100816907634958 0.7268085494392265 
Ne 7.583205802937353 3.2808734863281983 0.6993780429904048 
Ne 6.055410215145255 8.664411823665722 0.7594227748817034 
Ne 4.550199394675418 -0.8356579109047171 9.827497836520333 
Ne -0.9672867592554716 0.8795309630534363 10.067323961698607 
Ne 0.04957147186162686 3.373689616697579 -4.187326601383712 
Ne 1.687530315427463 4.242915964569392 1.5365136779850856 
