13 
 
Ne -3.756879919045485 -4.816515121744445 4.5220050309998 
Ne 2.751512733629602 0.8219387663771153 3.090481186693575 
Ne 0.36395004867941744 -5.859855391175853 1.2655931620342145 
Ne -6.492945768536342 4.422215654253381 1.4259163570157634 
Ne -0.006638384001515063 -1.237270750067303 7.4863472843944106 
Ne -0.877179106953407 3.9699557748823238 -0.7369501938968199 
Ne -2.9327059531894215 -0.3168778215782052 1.331661453068938 
Ne -5.427075983553923 1.872290410794374 -3.394699117717438 
Ne 0.27315287605062977 -1.4984274904118093 -3.1074228849518173 
Ne -4.679876896552417 -5.016368172267704 -1.7380578041778887 
Ne -6.121589526893094 0.7868658526318795 5.969875010791703 
Ne -2.124735808521966 4.835687844345852 5.300504003923518 
Ne -8.158378868083851 -1.6348870475738564 1.1745734899444593 
13 
 
Ne -5.715722055463664 2.729076185629453 -4.082169824625913 
Ne 0.7451752237422056 -3.9254462028254813 -5.940961028355752 
Ne 4.556903388267745 5.173355512759557 -3.0690243857589885 
Ne 4.278846326083748 2.786637648370365 2.056395136362372 
Ne -3.091248652385507 -1.902338365042203 -1.4595704294416298 
Ne 0.4436621421479291 7.6691229251001625 -5.382837537952648 
Ne 1.1121497090587897 -1.672957201595896 3.803490510793223 
Ne -5.303839211753079 2.1245346249493116 2.6161133076839405 
Ne 3.3299534977126073 -0.8724515093341434 -1.6357548793631789 
Ne -0.4673411954366109 1.6750490478834243 -5.895150902915414 
Ne -0.3337201272094338 4.080059519749026 5.332171109365516 
Ne -3.625350533358659 7.7060236158683635 -0.5668365874656767 
Ne -0.5937234744981074 3.029555347019721 -0.7068077348138312 
13 
 
Ne 4.84165480410245 2.009938203410528 -6.990617228174705 
Ne -0.18118910792096002 3.0001278684636192 -4.572889917123745 
Ne 2.502937598055137 -6.269413060697366 -2.0340265386310277 
Ne 4.088642629768033 6.086075146065545 -2.030112998593675 
Ne 0.09606419460758822 3.2304649134537353 1.380391588272636 
Ne -2.0030904241425302 -1.83911476249711 -1.4501218896257195 
Ne 7.104012903293323 -2.804438477224767 -4.981684202448966 
Ne 9.269251853022514 1.7074979271482102 -2.158503656029568 
Ne 5.602780586466297 3.5767825130059645 2.5308183718414825 
Ne 2.181393355119162 -2.370708685791131 2.941143701644264 
Ne 7.430406215659263 -2.592234659401724 1.1174849251791377 
Ne 3.891542059773835 0.3073444236298797 -1.8598001978361445 
Ne 1.28647969538034 -2.30787789125507 -6.062880575161402 
13 
 
Ne 2.4865573249610424 0.2688767138895231 4.454282654536125 
Ne 0.3263167229178946 -2.147715550351308 -0.42266751912341055 
Ne -5.975040029357156 -0.9069541408654989 -0.5615449981087652 
Ne 3.4257143170588447 2.66126913717545 -1.311032192309804 
Ne -1.7399679124126406 2.712170641859048 1.5376089050260318 
Ne -0.30785748192936846 7.303424516379699 -1.5556088492486628 
Ne -5.87274234489265 4.950882514975085 -1.7901580238546617 
Ne -1.6815928150322255 2.4119833375327433 -4.255380310336938 
Ne -3.751946990215654 7.50602353915516 3.874833376787317 
Ne 2.116649617937436 5.807859204771713 4.508150371355787 
Ne -7.0583546946965 2.5044304045786165 4.100329439848235 
Ne -2.7619976777248136 -2.188505064905409 4.22695637608466 
Ne -2.206507108979137 2.8037990207140355 7.147281074602089 
13 
 
Ne -1.9866911544516 -2.9702024742190583 -6.050554926088227 
Ne 1.4762220695298318 -6.925785757417803 2.2385199462963135 
Ne 3.1232268648188786 -6.208942227806412 -4.308502956432721 
Ne -3.841185101122775 -5.251661458817852 2.6937385223509227 
Ne 3.0023073382716827 0.15644295872582234 -4.728305223262397 
Ne -5.6058461969727285 -1.866508969753693 -2.2073938101523947 
Ne 0.9122440453942889 -1.5053098134973553 4.998178166777745 
Ne -2.1662854844999617 2.7799875373184286 -2.8446533399205394 
Ne -3.2701830603418447 -7.256781997713918 -2.6971480335388573 
Ne -2.947540475262066 1.5467761835151872 2.612834558211932 
Ne 2.6930800743546226 2.2446620609524537 0.6327564745732239 
Ne 5.604506954530006 -2.75185676554149 0.6459935626583522 
Ne -0.11893989722000371 -2.2533483460591492 -0.7086220659641739 
13 
 
Ne -0.030012501812154868 -0.5061325932831959 -1.5874153854646482 
Ne -2.601637218768668 -4.8822621557724375 -3.5684486039009893 
Ne 5.69361859081889 -0.6959051315827735 -1.3300317183870016 
Ne 1.3186250445983476 -5.420736021664685 0.4297267067517424 
Ne 2.751754688676463 -0.5103621512276643 3.6942827582223052 
Ne -0.792710154032184 -0.09078086233392085 -7.334028803743844 
Ne -5.5323133782849485 0.5856634022158419 -2.068295813044149 
Ne 2.7921337113034412 4.295979832513037 -0.19572992832512978 
Ne 2.9061866883440017 -3.9270579514308084 -5.38281728576039 
Ne 3.660319745059178 2.903591455329232 -5.345982045997773 
Ne -1.462650198062044 4.543980824336338 -3.922080656089263 
Ne -2.0786099485052336 2.606796592822823 2.406357275839125 
Ne -3.464760090068443 -3.203291499862971 2.2783970581412922 
13 
 
Ne -2.099661365772987 -3.9370013709574723 -7.654018195113079 
Ne 2.590101655347961 3.588322212012353 -2.0027460856896453 
Ne -7.329504679040128 0.43794488463777587 -1.4356213398051574 
Ne -1.82102382180475 1.0459408621427213 0.4002701524139354 
Ne -1.2096755451375054 1.22648512895937 -4.944524052768119 
Ne 1.3749368625713796 -3.5409196191597427 0.1402672655531203 
Ne 7.957201247468465 -3.4209813530418334 -1.373528380343843 
Ne 1.0100030053870097 -7.558026463463302 -4.400505241014424 
Ne -1.506712657635862 -5.924851999979326 4.3909594851043785 
Ne -4.296827778193646 -4.411067407689172 -2.4397533759906023 
Ne 5.1806479205818725 -0.9622429377032644 3.6623587836213707 
Ne 2.8444293534702436 -2.513769235265719 -5.247168312994737 
Ne -6.376963032523867 -3.1449837896763224 5.4174036931856255 
13 
 
Ne -0.17777530320836188 -0.20090152304960696 -2.7212632049878462 
Ne 9.046727552341913 -2.2259560157879132 -0.9618743793544408 
Ne -0.5867985941909242 3.260271424889306 2.1697562039327645 
Ne 5.113842023966033 5.602681382763596 3.4778883934313107 
Ne 5.21314455778785 -0.08551253061063094 -4.650912755608618 
Ne 3.555338801141139 -4.883676525340345 -1.4361676754534454 
Ne 4.244556858399777 0.488662596671784 0.6226632112731927 
Ne 8.947644515477876 1.389523170244377 3.851052824147519 
Ne 8.606038664095298 4.054563009733334 -1.2765843651456048 
Ne 6.109845637578108 -3.947798967659764 3.7172993022148564 
Ne 2.9082303344912197 0.5601430545442451 6.1147075922323895 
Ne 0.01668101123057543 -2.9733986577393203 2.7918117908282643 
Ne 3.157142242552457 5.266357947786072 -1.8864250732349734 
13 
 
Ne -5.286901583968094 -2.818559931501924 5.188947721793311 
Ne 4.463002413709884 0.2967277823757139 1.8974221939079559 
Ne -4.785826588416931 -4.007083894942214 -2.7521649952708964 
Ne -1.1251532716752919 2.978545980054343 5.606446742037398 
Ne 1.2903701986148237 4.031977327887366 -0.4490001929898392 
Ne 3.0961796318473778 -5.349388919071798 0.09928667760856702 
Ne 0.6631380962440058 8.217362979044303 3.7360274492810013 
Ne -1.6210844388235006 -2.2696795082213486 9.544881549005881 
Ne 0.9835331703040814 -4.016821660378586 5.069585266895315 
Ne -0.9688482734377667 -1.1085849729372863 0.7285682670247813 
Ne -5.854194900802177 1.8365765240082337 -0.8369622801677402 
Ne 0.17707423601622507 -1.969478113328283 -4.474410085304947 
Ne -1.3816710578264966 -8.86427699848858 1.9865876280095847 
13 
 
Ne 1.8778457202926924 3.5563761639841633 0.3876079569724363 
Ne 4.684749950190521 -2.3456716243327733 -3.2834159065636954 
Ne 5.669538564512617 5.756702548803023 -2.889920451893812 
Ne -3.6750269742907045 1.9473964096289444 0.689004041530168 
Ne -0.2867735333994094 -5.947744896196446 -2.671733928310281 
Ne 1.201188465140483 -2.3050256642848717 2.0728558256344596 
Ne -6.1365385810240305 -3.1765957899010746 -1.3196319262199383 
Ne 0.15584004427119566 -3.4631055689519257 -8.316679866093358 
Ne -0.6406960048994532 -0.2452576714745745 -3.652548922436236 
Ne -5.108668264986296 2.7467504946503976 -4.9193946653160125 
Ne -5.479227705289784 -2.5604753253376913 -7.2664470039076425 
Ne 0.2837665149439858 5.581037215061338 -4.537358544666518 
Ne 3.6309667659020426 1.3074397239858295 -8.168814279028366 
