13 
 
Ne 1.6880911934013976 4.927250518158546 -7.80587699515681 
Ne -2.586957286736723 7.285211818958347 0.5428726002324572 
Ne -2.6276560142749994 7.126011240221547 -5.497248701787773 
Ne -5.2630746217159725 2.1207531809647553 -1.4319284322116965 
Ne 6.411961440860762 5.5565745196108995 -2.7326438775655317 
Ne 4.637607037526315 0.8777107082601315 1.2089953664928066 
Ne 3.567301590321153 6.330966513790993 2.5473607561050877 
Ne 0.6403063438124096 3.6743747549042696 -2.230693273308787 
Ne 3.9507134578521597 -0.8731896961861532 -4.921039321739625 
Ne -2.1334239066871854 0.2570825442625405 -6.112370478050637 
Ne 1.9573040054120106 9.125667211270194 -2.410279936889835 
Ne -0.18505573434698375 -2.1079348790791936 -1.3836178754321915 
Ne -0.9292378107766202 1.8903874434462233 2.7968028666836604 
13 
 
Ne -3.756879919045485 -4.816515121744445 4.5220050309998 
Ne 2.751512733629602 0.8219387663771153 3.090481186693575 
Ne 0.36395004867941744 -5.859855391175853 1.2655931620342145 
Ne -6.492945768536342 4.422215654253381 1.4259163570157634 
Ne -0.006638384001515063 -1.237270750067303 7.4863472843944106 
Ne -0.877179106953407 3.9699557748823238 -0.7369501938968199 
Ne -2.9327059531894215 -0.3168778215782052 1.331661453068938 
Ne -5.427075983553923 1.872290410794374 -3.394699117717438 
Ne 0.27315287605062977 -1.4984274904118093 -3.1074228849518173 
Ne -4.679876896552417 -5.016368172267704 -1.7380578041778887 
Ne -6.121589526893094 0.7868658526318795 5.969875010791703 
Ne -2.124735808521966 4.835687844345852 5.300504003923518 
Ne -8.158378868083851 -1.6348870475738564 1.1745734899444593 
13 
 
Ne -4.113910991632863 -1.5784882994721143 -5.784941341671451 
Ne -2.734713366805341 2.893725421457481 -1.6272671392595588 
Ne 1.3764292284016229 0.9335622676226445 -5.278626150628886 
Ne 1.7750500446222448 6.637114170086632 -3.3824592161371654 
Ne -7.886461546903138 3.6170447200406968 -4.02248924407198 
Ne -1.589483820897458 7.435979232741369 1.8929068663428088 
Ne -7.095456125985524 5.4809774270533405 1.5680820906528887 
Ne -0.5453398567719934 -2.0790251644498774 -1.1017343859933018 
Ne -2.5648380727068747 4.139130999549166 -6.9583589629618885 
Ne 2.0015705255746075 2.565563446267606 0.60801947813328 
Ne -2.9814241808449964 1.0848669512512006 3.609916601586198 
Ne -6.315730361499261 -1.0891056637954788 -0.7988957324123764 
Ne -4.214086232355986 7.896937998143839 -3.034911607964623 
13 
 
Ne 3.7389404158722455 -0.9061349516490329 -1.6619961907290726 
Ne -2.587835485786832 -6.452579855504309 3.5761044551877577 
Ne -6.584048801030486 -5.376660290143065 -0.19182102677508855 
Ne 1.7154015136157255 -1.913952458141076 4.153909377560706 
Ne -3.549434722225109 -5.169285930388507 -5.722196450052336 
Ne -1.8787846270692226 -8.635398347085019 -1.5104472264778281 
Ne -0.36128770306374025 0.08120543686920823 -5.408968146942536 
Ne -1.3516011412512743 -3.1424344232984835 -1.052795064690033 
Ne 2.8628582404758345 -6.774389539016898 0.7220433140979968 
Ne -4.619861573896232 -0.8879414994035556 2.9125826698056048 
Ne 2.1337688972184865 -6.01594962439099 -5.2787604231455045 
Ne -5.812168123488651 -0.30032971054858526 -2.931713167321101 
Ne -0.613105851031464 2.2371772650944974 0.05005053739013442 
13 
 
Ne -0.7764713410136141 -1.9558408956987066 -6.359421648068927 
Ne 1.9698180411077129 -0.9851882992809322 3.5500421296110023 
Ne 0.3550683003888332 1.3956968464058852 -1.8526637616975865 
Ne -3.0876092719892223 -2.9503738932128387 -1.2833915876988042 
Ne 2.420748075558132 5.117583917982777 2.1340309469111336 
Ne -5.266396230600358 2.5463646291915714 -2.5369373944070492 
Ne -1.7009252969556063 6.570012574617553 -1.101886448620985 
Ne 3.9938523963964188 5.702293150240279 -3.294482814267652 
Ne 6.0526889542208515 1.0087310037438544 -0.7953765369555894 
Ne 2.613423769506047 -3.7780028711364135 -1.6751061063160952 
Ne 4.008724354123202 0.8681201995410417 -6.099806694926207 
Ne -2.7327865281226233 2.1277990639109476 2.8125376798472064 
Ne -0.8768493969831512 4.502787085243163 -6.6052484489452254 
13 
 
Ne -4.032576915136586 -7.961653008339012 -0.17626308849304273 
Ne -0.2062556553532579 -2.9876385224773765 -2.2948682254714377 
Ne 2.5858078998058147 1.5240169951372118 -0.6752653540537614 
Ne 2.132905243790804 -5.008522519927705 -7.10714621549682 
Ne -1.6899078064397017 -0.4651261453252443 2.3156569789305363 
Ne 1.919257633921647 6.631520278476667 -2.9754094698045845 
Ne -3.221749351046279 -6.323892469926514 -6.280830931053059 
Ne -2.718449739392412 2.7318779247505294 -3.092913313485983 
Ne 2.073266877560318 -8.257391042871854 -2.264983928067309 
Ne 3.26809349608231 1.2965280713957532 -6.599004170613082 
Ne -1.9733174664689495 -0.946310027906027 -7.735263378142485 
Ne -5.74405694777579 -2.80097333754213 -2.656755902130084 
Ne 5.643548134570766 -2.74763999050545 0.4502955866017874 
13 
 
Ne 2.4865573249610424 0.2688767138895231 4.454282654536125 
Ne 0.3263167229178946 -2.147715550351308 -0.42266751912341055 
Ne -5.975040029357156 -0.9069541408654989 -0.5615449981087652 
Ne 3.4257143170588447 2.66126913717545 -1.311032192309804 
Ne -1.7399679124126406 2.712170641859048 1.5376089050260318 
Ne -0.30785748192936846 7.303424516379699 -1.5556088492486628 
Ne -5.87274234489265 4.950882514975085 -1.7901580238546617 
Ne -1.6815928150322255 2.4119833375327433 -4.255380310336938 
Ne -3.751946990215654 7.50602353915516 3.874833376787317 
Ne 2.116649617937436 5.807859204771713 4.508150371355787 
Ne -7.0583546946965 2.5044304045786165 4.100329439848235 
Ne -2.7619976777248136 -2.188505064905409 4.22695637608466 
Ne -2.206507108979137 2.8037990207140355 7.147281074602089 
13 
 
Ne 2.7560535487832962 -0.9402833391992671 -1.586611563531798 
Ne 2.586087405099599 -5.793501105683481 1.2093901155268156 
Ne 6.479755153021628 -0.006310310935050328 -6.221461569164429 
Ne 1.8673758432762706 3.809326330687152 1.7412743445594734 
Ne 0.8206118646268222 -0.6158781522266022 -6.894154292704396 
Ne -0.6462466714448036 -1.1339907375345424 3.0718824472482607 
Ne 2.8789474620587083 4.127061092901099 -4.149865133821321 
Ne -1.5779264554042407 -4.291336153927027 -3.418729127921451 
Ne -2.1504831642768547 1.7061871669690019 -2.0289613326664657 
Ne 7.391646909250286 2.4645966675705804 -1.1791579976895583 
Ne 7.874395471465573 -3.2575559377185885 -0.6543534820468355 
Ne 4.925697290785186 -0.9776674468668056 3.897362023153457 
Ne 4.244841555940501 -5.276920128030008 -4.9153403340061015 
13 
 
Ne -3.4910239022895366 -0.036104524135389934 -0.5603879202635698 
Ne -2.3779388053805497 3.6790903096409955 3.7506559105621062 
Ne -7.447502026503695 3.9940429197453233 0.7945528873720787 
Ne -4.848847088466798 -4.319357049305463 -4.309906926698986 
Ne -0.0799731544866142 -1.768158480535133 4.11701479911247 
Ne -3.179645532810646 -5.42729482320213 0.795691335512105 
Ne 1.2962393352562744 -2.79321903417089 -2.0306292796670364 
Ne 4.10778332258794 2.43825102832088 5.874446208847668 
Ne -0.6112310431538954 1.1072161012802064 -6.096929642396371 
Ne -8.29904246058885 -1.9966605254514234 -0.7127400819581085 
Ne -5.938979181928987 -0.6068138793465416 5.183089797269532 
Ne 1.365247222743251 4.351936048234461 -1.3963056122047777 
Ne -5.996116276106917 2.4617029122602303 -5.044525349948433 
13 
 
Ne -5.715722055463664 2.729076185629453 -4.082169824625913 
Ne 0.7451752237422056 -3.9254462028254813 -5.940961028355752 
Ne 4.556903388267745 5.173355512759557 -3.0690243857589885 
Ne 4.278846326083748 2.786637648370365 2.056395136362372 
Ne -3.091248652385507 -1.902338365042203 -1.4595704294416298 
Ne 0.4436621421479291 7.6691229251001625 -5.382837537952648 
Ne 1.1121497090587897 -1.672957201595896 3.803490510793223 
Ne -5.303839211753079 2.1245346249493116 2.6161133076839405 
Ne 3.3299534977126073 -0.8724515093341434 -1.6357548793631789 
Ne -0.4673411954366109 1.6750490478834243 -5.895150902915414 
Ne -0.3337201272094338 4.080059519749026 5.332171109365516 
Ne -3.625350533358659 7.7060236158683635 -0.5668365874656767 
Ne -0.5937234744981074 3.029555347019721 -0.7068077348138312 
