38 
 
Ne -3.734732981973794 -6.670019194574226 -1.7738789166133349 
Ne 5.708879916658783 -5.151873261257268 0.9073290185800765 
Ne -3.112479948057028 8.564141385493258 4.264821005634229 
Ne -4.6242325494023016 -4.734150778196881 6.613877426301103 
Ne 10.884223715188147 -3.4075823938742262 1.7309816352284806 
Ne -0.6092152847663967 3.801313460087401 3.5149531894475854 
Ne -0.3219465842482205 -6.871844654677259 3.2933101929968247 
Ne 7.198694481057328 -3.051059445561496 6.106232622611683 
Ne 3.059652660137882 -0.3713926280725729 2.629224770460178 
Ne -0.6703073317797432 -5.16345222697624 -7.646724879531038 
Ne 3.9400764118760034 2.929571873597018 6.950541011551002 
Ne 8.660712599628091 7.8202193834307145 0.08483345321522655 
Ne -2.3623010059234866 4.135107172287581 -6.446641819824931 
Ne 9.943592562389254 -2.1228919153968437 -5.523718795004674 
Ne 8.18475425490378 1.7948339873277317 3.2439890127830755 
Ne -7.244220081676112 -4.99503107876319 -5.8708249546942834 
Ne -2.6994328393992824 -1.3119542020215385 1.7654934329485559 
Ne 4.0303458831687875 9.901741667078207 -2.501985785323039 
Ne 5.362133518963521 -5.356034020002554 -5.24481774970631 
Ne 2.3485340924474065 -0.8013992358828226 -6.378312911748838 
Ne 6.317737104725288 -0.6311237785032571 -2.0727122705841796 
Ne 9.589595966637003 4.057741752288865 -4.706905523129915 
Ne -3.2754763943417284 -1.4712148787190522 -4.463442850162497 
Ne 2.578930645112507 9.162686813766152 3.2829858193669224 
Ne 1.275363341290356 -3.7123997881385558 -1.4751196541886782 
Ne -7.852348122133319 -1.596873011919865 -1.4571294739055773 
Ne -4.877684534610847 3.7127229623370024 -0.22094738042447484 
Ne 3.0928545470042 4.966949853690063 -5.731373746803886 
Ne 4.156410297162718 4.833146768583562 0.4440154932000066 
Ne -8.542497611058831 1.323612667330187 -6.311721134592444 
Ne -6.541287083016114 0.6482336756799981 5.130619782233974 
Ne -1.1393273377317539 7.291811829686271 -1.7019080846861705 
Ne 2.05374361059763 -6.758504133931873 8.895333449983116 
Ne -2.103859301810298 0.0489097583047412 -9.939947899786395 
Ne 1.6985620516949298 -9.658803441420051 -1.278871386218823 
Ne -0.2619650460030807 -1.5033718105784584 7.225707185961017 
Ne 0.15815369739625942 1.8445089101894716 -2.0057052488321307 
Ne -6.6051781129043725 8.5315269384553 -2.9117304753557396 
