38 
 
Ne -3.4501353516501587 5.9950835896309 5.837127631993579 
Ne -7.5518185067710295 -5.244249285312594 5.713569019005811 
Ne -7.251448447516084 -3.570395013538102 -5.4149079560384665 
Ne 5.531964042846103 4.390583393784172 0.5511148496258613 
Ne -2.717530635586214 -1.8542704187851469 5.644648902000595 
Ne -0.5390669634754034 6.265587141737232 0.5893695736030193 
Ne 1.6072990743502673 7.981069640816706 6.006610904153561 
Ne 1.6397546654891066 -4.25790769640898 2.68460209136736 
Ne 2.1150028958516462 -1.6753192819282123 -7.549056901223957 
Ne 7.697491871341283 -4.7915988727743875 5.515343765073979 
Ne 0.2392342296884487 -8.737194661935128 -0.5856625687637853 
Ne 1.4934478896168364 1.7460368168899887 3.3996606328521968 
Ne -8.362817386815323 0.01983594844924446 3.93535195343285 
Ne 3.7088990402865063 -8.953416865367704 -5.884246113676039 
Ne -6.491221079235148 5.898178830252536 0.7747651507239698 
Ne 1.0584959091839754 3.3512993700918012 8.845531701252344 
Ne -3.812827311360138 -4.400743877960218 0.3124124847978302 
Ne 2.8230168591420832 -8.235904867174145 6.506033858463112 
Ne -3.49917698253128 -1.0863781336170306 -9.509354727098142 
Ne -8.4236592826196 0.8632814421839013 -2.035184133633426 
Ne -3.6111841254280566 1.3174432825279205 0.6930507385351673 
Ne 1.7615111998107542 1.542049678396482 -2.3304444129951327 
Ne -2.422717820911997 -7.675831505843984 5.585103969573668 
Ne -9.375539812584377 -4.481148062791056 0.26980789902104685 
Ne 8.187696416675932 -4.4721774102317875 -4.123809031452182 
Ne 2.9779812568916557 -1.9731213000877854 7.850991180554132 
Ne 0.06892999942793315 3.6873633179982694 -7.958287464254161 
Ne 11.533417783754754 1.3491001875218704 1.776316632015825 
Ne 7.841881678481561 -1.1422960669928446 -8.481879819270453 
Ne 8.553186999452903 1.5173006384473666 -2.7919033298826403 
Ne -2.2428523694348947 -1.3547223274545974 -4.021650404357041 
Ne 6.074085571485425 -7.259064359307754 0.2867803845903011 
Ne -4.441157394405017 4.6353377639499005 -4.24063102384684 
Ne 3.870712762095037 6.319496782353875 -4.483388739945779 
Ne 2.3936912158077734 -4.372816332885708 -2.752478061636263 
Ne 7.057733747346536 1.7004697647590563 5.671267684599539 
Ne -1.8162703676709193 -6.588835167050764 -5.963316793615562 
Ne 5.844957191810655 -1.6010560964038605 1.2490720762815612 
