13 
 
Ne -2.099661365772987 -3.9370013709574723 -7.654018195113079 
Ne 2.590101655347961 3.588322212012353 -2.0027460856896453 
Ne -7.329504679040128 0.43794488463777587 -1.4356213398051574 
Ne -1.82102382180475 1.0459408621427213 0.4002701524139354 
Ne -1.2096755451375054 1.22648512895937 -4.944524052768119 
Ne 1.3749368625713796 -3.5409196191597427 0.1402672655531203 
Ne 7.957201247468465 -3.4209813530418334 -1.373528380343843 
Ne 1.0100030053870097 -7.558026463463302 -4.400505241014424 
Ne -1.506712657635862 -5.924851999979326 4.3909594851043785 
Ne -4.296827778193646 -4.411067407689172 -2.4397533759906023 
Ne 5.1806479205818725 -0.9622429377032644 3.6623587836213707 
Ne 2.8444293534702436 -2.513769235265719 -5.247168312994737 
Ne -6.376963032523867 -3.1449837896763224 5.4174036931856255 
13 
 
Ne 6.800319419779441 1.3073648213278577 -2.807504748654823 
Ne -0.27144643867794843 -6.579616877409951 -5.221585381706014 
Ne -1.9378331432890614 3.608223875151869 -5.640279376854921 
Ne 4.093158432803334 -3.456881271060506 -7.239064939085652 
Ne -4.415252362297701 -2.431240482270352 -4.271580969413969 
Ne 0.8180123142055286 -1.1319183442600398 -3.4705339175638885 
Ne -3.265555454169393 1.1608937715114183 0.1067738437686975 
Ne 1.916746040959838 4.300482752443442 -1.3550226410778958 
Ne 3.369421967552408 2.8183239074345448 -7.310359945301572 
Ne -1.0764878779986242 -0.9167083253809674 -8.929142358642142 
Ne 4.2182019530130885 -5.915891669136884 -0.1939134214246955 
Ne -1.3627400578114521 -5.129259274540073 0.04317082059800029 
Ne 3.027112339963409 -0.7326715575573266 1.462369989059996 
13 
 
Ne 1.6880911934013976 4.927250518158546 -7.80587699515681 
Ne -2.586957286736723 7.285211818958347 0.5428726002324572 
Ne -2.6276560142749994 7.126011240221547 -5.497248701787773 
Ne -5.2630746217159725 2.1207531809647553 -1.4319284322116965 
Ne 6.411961440860762 5.5565745196108995 -2.7326438775655317 
Ne 4.637607037526315 0.8777107082601315 1.2089953664928066 
Ne 3.567301590321153 6.330966513790993 2.5473607561050877 
Ne 0.6403063438124096 3.6743747549042696 -2.230693273308787 
Ne 3.9507134578521597 -0.8731896961861532 -4.921039321739625 
Ne -2.1334239066871854 0.2570825442625405 -6.112370478050637 
Ne 1.9573040054120106 9.125667211270194 -2.410279936889835 
Ne -0.18505573434698375 -2.1079348790791936 -1.3836178754321915 
Ne -0.9292378107766202 1.8903874434462233 2.7968028666836604 
13 
 
Ne -4.113910991632863 -1.5784882994721143 -5.784941341671451 
Ne -2.734713366805341 2.893725421457481 -1.6272671392595588 
Ne 1.3764292284016229 0.9335622676226445 -5.278626150628886 
Ne 1.7750500446222448 6.637114170086632 -3.3824592161371654 
Ne -7.886461546903138 3.6170447200406968 -4.02248924407198 
Ne -1.589483820897458 7.435979232741369 1.8929068663428088 
Ne -7.095456125985524 5.4809774270533405 1.5680820906528887 
Ne -0.5453398567719934 -2.0790251644498774 -1.1017343859933018 
Ne -2.5648380727068747 4.139130999549166 -6.9583589629618885 
Ne 2.0015705255746075 2.565563446267606 0.60801947813328 
Ne -2.9814241808449964 1.0848669512512006 3.609916601586198 
Ne -6.315730361499261 -1.0891056637954788 -0.7988957324123764 
Ne -4.214086232355986 7.896937998143839 -3.034911607964623 
13 
 
Ne 0.06912969404283932 1.2900086943887068 -9.477806146613668 
Ne 5.548817947978461 2.952604194439788 -1.528560729611603 
Ne -3.834673187316534 4.966789927057677 -0.5854080908006023 
Ne 4.667252552913898 -0.09601625598229048 -6.462641880636468 
Ne -0.5694809359817223 -2.81117593839932 -5.608516451226494 
Ne 1.5693820305511863 7.309533594184195 -1.2515974060531558 
Ne 0.430086614257239 2.407118419923082 -3.5469544648964053 
Ne -4.797616894929314 1.7115606877259897 -5.793104051439172 
Ne 1.0735889878297462 2.5207832940265824 2.2249499333863456 
Ne -2.970767426310309 -1.0320177574151408 -0.6616044006882538 
Ne 3.9351252388701026 5.892842598674068 -6.4173434818399935 
Ne 2.815891836235925 -2.2107630920095054 -0.9668510575666206 
Ne -2.0869953617827735 7.0123177052343655 -5.973314780016663 
13 
 
Ne 3.7389404158722455 -0.9061349516490329 -1.6619961907290726 
Ne -2.587835485786832 -6.452579855504309 3.5761044551877577 
Ne -6.584048801030486 -5.376660290143065 -0.19182102677508855 
Ne 1.7154015136157255 -1.913952458141076 4.153909377560706 
Ne -3.549434722225109 -5.169285930388507 -5.722196450052336 
Ne -1.8787846270692226 -8.635398347085019 -1.5104472264778281 
Ne -0.36128770306374025 0.08120543686920823 -5.408968146942536 
Ne -1.3516011412512743 -3.1424344232984835 -1.052795064690033 
Ne 2.8628582404758345 -6.774389539016898 0.7220433140979968 
Ne -4.619861573896232 -0.8879414994035556 2.9125826698056048 
Ne 2.1337688972184865 -6.01594962439099 -5.2787604231455045 
Ne -5.812168123488651 -0.30032971054858526 -2.931713167321101 
Ne -0.613105851031464 2.2371772650944974 0.05005053739013442 
13 
 
Ne 8.125637188915102 -1.282289148250546 -1.7368204855089027 
Ne 3.633875198060335 -5.207548667932346 -2.6990955102889145 
Ne 7.964201264954814 -0.5649423495025481 4.091888253291255 
Ne 2.8175085587235857 -1.5461891163915498 1.7268491366380507 
Ne -2.191415606045711 -2.9601642871419465 -0.6015793747132839 
Ne 3.2827372013772287 -4.097878815495984 6.934215347914545 
Ne 0.8761759915361693 -6.667493981963487 2.2549991719453124 
Ne 6.6330795745742215 -5.546209620224607 2.1802216554930403 
Ne 3.0975173138438943 2.0215971806197834 6.194585280848944 
Ne -1.6321145607819179 -1.4339675154101226 5.2483874439108185 
Ne -1.0565673579585129 2.592630068939764 0.6240697463550464 
Ne 5.214219657321978 3.342864009151213 0.19108278625246736 
Ne 2.0552036368052025 0.11930879156585172 -3.493962788642464 
13 
 
Ne 2.4103666978496574 3.1165270858498153 -2.073512477371208 
Ne -2.936838433593646 0.884676097448973 -2.8474911409282773 
Ne 3.1848318735532857 5.67658310631859 3.09213491331785 
Ne 1.2862070196648674 -3.0436892082479945 -1.3036350618748733 
Ne -2.3296984447103215 6.323332154221615 -0.5628896199048787 
Ne 5.247584707742905 -0.6189797264324138 2.3846376416060715 
Ne 2.2093757414468596 1.8809442592166026 7.140783210164815 
Ne 0.47580372443347446 -3.851281324533723 5.470237618549913 
Ne -6.566930112083488 2.567138239924746 2.5272888328441567 
Ne -3.6734203225882647 0.43765506051681563 7.100210645181307 
Ne -3.966292245522467 -2.9865804880052536 1.9241744648029526 
Ne -0.534049576064898 1.1437158866474282 2.2855967013001965 
Ne -1.906669810422754 5.951736885667973 5.51932558955602 
13 
 
Ne -4.113910991632863 -1.5784882994721143 -5.784941341671451 
Ne -2.734713366805341 2.893725421457481 -1.6272671392595588 
Ne 1.3764292284016229 0.9335622676226445 -5.278626150628886 
Ne 1.7750500446222448 6.637114170086632 -3.3824592161371654 
Ne -7.886461546903138 3.6170447200406968 -4.02248924407198 
Ne -1.589483820897458 7.435979232741369 1.8929068663428088 
Ne -7.095456125985524 5.4809774270533405 1.5680820906528887 
Ne -0.5453398567719934 -2.0790251644498774 -1.1017343859933018 
Ne -2.5648380727068747 4.139130999549166 -6.9583589629618885 
Ne 2.0015705255746075 2.565563446267606 0.60801947813328 
Ne -2.9814241808449964 1.0848669512512006 3.609916601586198 
Ne -6.315730361499261 -1.0891056637954788 -0.7988957324123764 
Ne -4.214086232355986 7.896937998143839 -3.034911607964623 
13 
 
Ne 2.379872559082237 -1.008282959535243 -4.605859379026367 
Ne -0.732401369127195 1.882511455122569 -0.025179861441407825 
Ne -1.9632106801140463 2.8685864532824272 -5.499046734690551 
Ne 0.5568817814161282 -9.440831868804338 1.446259937450212 
Ne 5.304624972080942 -6.056596260429539 0.16398574502906987 
Ne -1.1098475962135894 -0.5924565930355659 5.375214083357453 
Ne -2.7513481056907048 -2.8016415445941516 -4.546254773478884 
Ne -5.508572430022795 -1.0385318900616995 1.1119953942841498 
Ne 4.162199824553737 -0.16409406336254057 0.581958611146312 
Ne 1.256297284145727 -7.027456303686721 -3.898250571262581 
Ne -7.412780364665409 0.3832478722792507 -4.225640636866453 
Ne -4.7162896420318985 -7.41037586681556 -1.8009309974757486 
Ne -0.14490062179988006 -3.7014548513141787 0.4058153573551502 
