38 
 
Ne -1.7249987751013875 -6.645391080878199 5.115782776805873 
Ne 4.024834635408768 -4.8962059288820265 -8.799546331888282 
Ne 4.385127954481899 -9.173231333427015 0.4153893941916539 
Ne 5.392891091784112 6.430760670820666 1.860766330220375 
Ne 9.139490111100592 -1.2260337680907898 -3.7168845690533945 
Ne -5.59723225029637 -0.9543467554314063 -8.72612655364497 
Ne -8.399071427793698 0.15823723022091768 1.162006505222048 
Ne 5.811419877502081 -0.418155687411229 6.130398860107691 
Ne -3.610783318517879 3.3781804146156005 6.214690011817985 
Ne -4.8704774075012285 -7.981574018073072 -4.152696503295047 
Ne -3.3934231508385873 7.526382443304231 -3.4009067504044506 
Ne 2.1587938485715332 7.869365893001703 -2.8985170838939283 
Ne -5.795277983347908 -2.097369489253104 5.853326448720686 
Ne -3.1235566173289455 4.372752499270953 -8.3894382544753 
Ne 2.57371062120191 4.970635128078509 -8.044267702889986 
Ne -2.273301498570912 -5.716055121384795 -8.748769567560032 
Ne -6.255310649118781 5.608379059900732 1.4433377602964252 
Ne 8.699919142870094 1.7531334100526936 1.7173031823576053 
Ne 2.388970416782178 3.9874617949912476 6.285455382406861 
Ne 6.840410938274667 -6.563132810971549 -3.8822407994296717 
Ne -8.703434620194157 -2.7499481416821365 -3.986559967898093 
Ne 4.026830802395492 -6.4243038173240015 5.51768830672995 
Ne -1.3585239465861876 -9.832418718890057 0.2206723033201727 
Ne 6.020729153397546 0.2972970709500189 -8.174306555152949 
Ne -5.78216027294059 2.0947578107858926 -3.8726687057554505 
Ne 0.12057172062110003 -0.5132595423395239 -8.45833102941615 
Ne 1.160415286806874 -6.868318224284252 -4.26065288740058 
Ne 6.4603955686824595 -3.2876300444854403 0.9361878734233722 
Ne -0.5434178748125814 5.5681060506333315 1.8651053623097416 
Ne -5.20461799684134 -4.586490585515205 0.8641120580284358 
Ne 5.811059122562399 3.2532685022070833 -3.1223468093159594 
Ne -0.06656515374228254 -0.9979791270448681 6.137537537531769 
Ne 3.090267806939863 -1.84415473508402 -3.753875258770213 
Ne -0.1526210009606201 2.580563224154345 -3.4055508421464418 
Ne 2.811658177244064 1.098574084003602 1.239853580477263 
Ne -2.941826747501768 0.46766291583565067 1.4100262814142213 
Ne 0.8636002857612863 -4.3272312145338425 0.948545287817371 
Ne -2.7387446096861225 -2.509067135466851 -3.766550900068223 
