13 
 
Ne 0.06912969404283932 1.2900086943887068 -9.477806146613668 
Ne 5.548817947978461 2.952604194439788 -1.528560729611603 
Ne -3.834673187316534 4.966789927057677 -0.5854080908006023 
Ne 4.667252552913898 -0.09601625598229048 -6.462641880636468 
Ne -0.5694809359817223 -2.81117593839932 -5.608516451226494 
Ne 1.5693820305511863 7.309533594184195 -1.2515974060531558 
Ne 0.430086614257239 2.407118419923082 -3.5469544648964053 
Ne -4.797616894929314 1.7115606877259897 -5.793104051439172 
Ne 1.0735889878297462 2.5207832940265824 2.2249499333863456 
Ne -2.970767426310309 -1.0320177574151408 -0.6616044006882538 
Ne 3.9351252388701026 5.892842598674068 -6.4173434818399935 
Ne 2.815891836235925 -2.2107630920095054 -0.9668510575666206 
Ne -2.0869953617827735 7.0123177052343655 -5.973314780016663 
13 
 
Ne 2.7560535487832962 -0.9402833391992671 -1.586611563531798 
Ne 2.586087405099599 -5.793501105683481 1.2093901155268156 
Ne 6.479755153021628 -0.006310310935050328 -6.221461569164429 
Ne 1.8673758432762706 3.809326330687152 1.7412743445594734 
Ne 0.8206118646268222 -0.6158781522266022 -6.894154292704396 
Ne -0.6462466714448036 -1.1339907375345424 3.0718824472482607 
Ne 2.8789474620587083 4.127061092901099 -4.149865133821321 
Ne -1.5779264554042407 -4.291336153927027 -3.418729127921451 
Ne -2.1504831642768547 1.7061871669690019 -2.0289613326664657 
Ne 7.391646909250286 2.4645966675705804 -1.1791579976895583 
Ne 7.874395471465573 -3.2575559377185885 -0.6543534820468355 
Ne 4.925697290785186 -0.9776674468668056 3.897362023153457 
Ne 4.244841555940501 -5.276920128030008 -4.9153403340061015 
13 
 
Ne 2.379872559082237 -1.008282959535243 -4.605859379026367 
Ne -0.732401369127195 1.882511455122569 -0.025179861441407825 
Ne -1.9632106801140463 2.8685864532824272 -5.499046734690551 
Ne 0.5568817814161282 -9.440831868804338 1.446259937450212 
Ne 5.304624972080942 -6.056596260429539 0.16398574502906987 
Ne -1.1098475962135894 -0.5924565930355659 5.375214083357453 
Ne -2.7513481056907048 -2.8016415445941516 -4.546254773478884 
Ne -5.508572430022795 -1.0385318900616995 1.1119953942841498 
Ne 4.162199824553737 -0.16409406336254057 0.581958611146312 
Ne 1.256297284145727 -7.027456303686721 -3.898250571262581 
Ne -7.412780364665409 0.3832478722792507 -4.225640636866453 
Ne -4.7162896420318985 -7.41037586681556 -1.8009309974757486 
Ne -0.14490062179988006 -3.7014548513141787 0.4058153573551502 
13 
 
Ne 1.6880911934013976 4.927250518158546 -7.80587699515681 
Ne -2.586957286736723 7.285211818958347 0.5428726002324572 
Ne -2.6276560142749994 7.126011240221547 -5.497248701787773 
Ne -5.2630746217159725 2.1207531809647553 -1.4319284322116965 
Ne 6.411961440860762 5.5565745196108995 -2.7326438775655317 
Ne 4.637607037526315 0.8777107082601315 1.2089953664928066 
Ne 3.567301590321153 6.330966513790993 2.5473607561050877 
Ne 0.6403063438124096 3.6743747549042696 -2.230693273308787 
Ne 3.9507134578521597 -0.8731896961861532 -4.921039321739625 
Ne -2.1334239066871854 0.2570825442625405 -6.112370478050637 
Ne 1.9573040054120106 9.125667211270194 -2.410279936889835 
Ne -0.18505573434698375 -2.1079348790791936 -1.3836178754321915 
Ne -0.9292378107766202 1.8903874434462233 2.7968028666836604 
13 
 
Ne 6.800319419779441 1.3073648213278577 -2.807504748654823 
Ne -0.27144643867794843 -6.579616877409951 -5.221585381706014 
Ne -1.9378331432890614 3.608223875151869 -5.640279376854921 
Ne 4.093158432803334 -3.456881271060506 -7.239064939085652 
Ne -4.415252362297701 -2.431240482270352 -4.271580969413969 
Ne 0.8180123142055286 -1.1319183442600398 -3.4705339175638885 
Ne -3.265555454169393 1.1608937715114183 0.1067738437686975 
Ne 1.916746040959838 4.300482752443442 -1.3550226410778958 
Ne 3.369421967552408 2.8183239074345448 -7.310359945301572 
Ne -1.0764878779986242 -0.9167083253809674 -8.929142358642142 
Ne 4.2182019530130885 -5.915891669136884 -0.1939134214246955 
Ne -1.3627400578114521 -5.129259274540073 0.04317082059800029 
Ne 3.027112339963409 -0.7326715575573266 1.462369989059996 
13 
 
Ne 2.7560535487832962 -0.9402833391992671 -1.586611563531798 
Ne 2.586087405099599 -5.793501105683481 1.2093901155268156 
Ne 6.479755153021628 -0.006310310935050328 -6.221461569164429 
Ne 1.8673758432762706 3.809326330687152 1.7412743445594734 
Ne 0.8206118646268222 -0.6158781522266022 -6.894154292704396 
Ne -0.6462466714448036 -1.1339907375345424 3.0718824472482607 
Ne 2.8789474620587083 4.127061092901099 -4.149865133821321 
Ne -1.5779264554042407 -4.291336153927027 -3.418729127921451 
Ne -2.1504831642768547 1.7061871669690019 -2.0289613326664657 
Ne 7.391646909250286 2.4645966675705804 -1.1791579976895583 
Ne 7.874395471465573 -3.2575559377185885 -0.6543534820468355 
Ne 4.925697290785186 -0.9776674468668056 3.897362023153457 
Ne 4.244841555940501 -5.276920128030008 -4.9153403340061015 
13 
 
Ne -3.756879919045485 -4.816515121744445 4.5220050309998 
Ne 2.751512733629602 0.8219387663771153 3.090481186693575 
Ne 0.36395004867941744 -5.859855391175853 1.2655931620342145 
Ne -6.492945768536342 4.422215654253381 1.4259163570157634 
Ne -0.006638384001515063 -1.237270750067303 7.4863472843944106 
Ne -0.877179106953407 3.9699557748823238 -0.7369501938968199 
Ne -2.9327059531894215 -0.3168778215782052 1.331661453068938 
Ne -5.427075983553923 1.872290410794374 -3.394699117717438 
Ne 0.27315287605062977 -1.4984274904118093 -3.1074228849518173 
Ne -4.679876896552417 -5.016368172267704 -1.7380578041778887 
Ne -6.121589526893094 0.7868658526318795 5.969875010791703 
Ne -2.124735808521966 4.835687844345852 5.300504003923518 
Ne -8.158378868083851 -1.6348870475738564 1.1745734899444593 
13 
 
Ne -0.29394723970573056 5.695974513657014 -2.3272715074636903 
Ne 6.292240418451416 -4.429601612476263 -3.758260702510958 
Ne 4.290249677611897 3.6852568169028093 -6.0978940116066225 
Ne -1.4702478449876502 1.9389456050288427 -6.26745668279419 
Ne 4.468489471209675 4.791866282564936 0.8378438377586337 
Ne -1.4696977533612336 -4.350176318209301 0.7337972798526939 
Ne -1.514171684015257 1.7975774518803596 1.6845434526143541 
Ne 3.6898422439739975 -1.628676162177507 -8.25798221495213 
Ne -0.8625352262705575 -4.747329171117227 -5.284679254362183 
Ne -0.30595583189464276 7.6601831590093985 3.462872176565213 
Ne 2.6231846706793647 -0.2869784278442382 -2.0012361360766864 
Ne 7.774454491263582 1.2650521484368997 -2.449968160246335 
Ne -4.403764999133144 -0.30041610067146285 -2.233157106348745 
13 
 
Ne 0.06912969404283932 1.2900086943887068 -9.477806146613668 
Ne 5.548817947978461 2.952604194439788 -1.528560729611603 
Ne -3.834673187316534 4.966789927057677 -0.5854080908006023 
Ne 4.667252552913898 -0.09601625598229048 -6.462641880636468 
Ne -0.5694809359817223 -2.81117593839932 -5.608516451226494 
Ne 1.5693820305511863 7.309533594184195 -1.2515974060531558 
Ne 0.430086614257239 2.407118419923082 -3.5469544648964053 
Ne -4.797616894929314 1.7115606877259897 -5.793104051439172 
Ne 1.0735889878297462 2.5207832940265824 2.2249499333863456 
Ne -2.970767426310309 -1.0320177574151408 -0.6616044006882538 
Ne 3.9351252388701026 5.892842598674068 -6.4173434818399935 
Ne 2.815891836235925 -2.2107630920095054 -0.9668510575666206 
Ne -2.0869953617827735 7.0123177052343655 -5.973314780016663 
13 
 
Ne -5.178567689737501 -2.2763379499576937 7.4389066624535864 
Ne 1.382470320047294 4.819517416725493 4.908902614499753 
Ne 2.5714897888632384 1.322545107898591 -0.7368527742213873 
Ne 1.257930103408639 -4.349889320058634 0.9331201313638775 
Ne 0.37548455808102305 0.8387226513783795 8.843904277255616 
Ne -2.935613772923679 -0.7319837204190773 -1.8271608332855405 
Ne -3.102358087651395 4.554035746893734 0.9200966512918924 
Ne -7.131308438979401 0.2745665496981265 2.7026015726582693 
Ne 3.9494345796362036 -0.7351060930727652 4.640636042721138 
Ne -0.06779473723747509 -4.700985057341135 6.72592190657121 
Ne -4.635919838038719 -4.666614985097853 2.243970087012689 
Ne -4.124412144391207 4.104160151476688 6.728191360756161 
Ne -1.3727256998772381 -0.1325955082783044 3.6235663760263543 
