38 
 
Ne 0.6652962679826537 -1.1895289191906286 9.328371433871274 
Ne 4.425022296105888 -4.43170025297975 -6.641740806365207 
Ne 6.74353447990148 -0.40494027601696714 2.4244581368608022 
Ne -6.7171730407258625 5.40945017931147 -2.479680690010749 
Ne 2.005625508638556 4.070995770644963 -5.377811430574769 
Ne -3.7718050728634664 -10.713522744014623 -3.2736691087799636 
Ne -6.750168488689097 -7.345421656650529 5.743084628038027 
Ne -0.3667621195593615 6.882018732444733 3.7655165882489547 
Ne -8.222106267769423 0.9968945429783092 6.090987795542426 
Ne 3.082554704661482 -8.929603876601565 2.2711021480166975 
Ne -10.400777216853431 -3.594994076249681 -2.653584772491451 
Ne -9.150543607988924 1.2528964358588428 -5.336817289435414 
Ne -5.057878894535087 -2.860915654048479 8.626594581426712 
Ne -7.1364862201485835 -7.268874961095167 -6.006542255579845 
Ne -5.675969141050208 -2.2901357066104144 -8.816255988754246 
Ne 2.0812097914984613 -9.405736180433044 -3.5367723225386025 
Ne -10.68025736694937 -3.7186210988246327 3.368394043044323 
Ne -1.1848740707130185 7.148751017162941 -1.8037150878495194 
Ne -6.323083737754528 5.283033334291815 3.2195455042079595 
Ne 6.378998893758203 -0.021522134771466306 -3.3950889726683386 
Ne -2.962833127873209 -10.92061136152153 2.339386978279027 
Ne 3.18752787454914 2.5712527694723497 5.7095133713250235 
Ne 4.5087379823851235 -4.498393430967787 6.003703599822812 
Ne 0.48231253619967107 -0.6320298234299245 -8.744925279620599 
Ne -7.070083562281595 -7.182480776747938 0.19738448764604094 
Ne -1.1734453065895118 -5.688373736775969 -6.322782641295699 
Ne 4.355238217113122 -4.42912643257916 -0.8629924170690153 
Ne 2.7650278713355343 3.3806807975184707 0.13068898887529154 
Ne -8.483762214496377 0.6492786197702903 0.3660259759760613 
Ne -1.1951971387530247 -6.179971168662898 5.551611293458903 
Ne -3.251086226589434 2.2474598649873885 -5.688416987550048 
Ne -2.4097185623680897 1.7298620910238605 5.817786029982971 
Ne 0.6588415972661272 -1.0578268508727366 -3.126230321748879 
Ne -4.940716742098287 -2.429485806666013 -2.9908855652446924 
Ne -2.8025401368499567 1.9736609722354002 0.03473319430017475 
Ne -4.850273417429676 -2.668589837668043 2.9551859944871395 
Ne 0.9043940864304887 -1.3514777281971142 2.539357172454678 
Ne -1.2136679614838084 -5.915830354183413 -0.288285189595176 
