13 
 
Ne 1.7938477915706568 -3.835109772906559 0.5061093592759239 
Ne 5.407379273980724 -1.5303039289077398 -2.725439737847751 
Ne -1.2474294536810353 -0.31439588540759145 4.186731977652835 
Ne 4.685119047701522 0.34966851122029763 3.19147667596973 
Ne 3.2092839680271745 -4.320856225511937 6.397039190840796 
Ne -1.8288219256732787 -8.216910940524768 -1.0141959818809803 
Ne 7.106606626332797 -5.378087288112931 1.642210115135249 
Ne 2.816579410369302 -8.893919306407065 2.945691692495797 
Ne 3.8172913104242747 -8.07764186088268 -2.7964416492486284 
Ne -3.7260849983324182 -2.7668127049340887 -0.5685674375759869 
Ne 0.8614242783356911 1.761415921020762 -1.0790330296337716 
Ne 0.04476366523607414 -3.4966325100730677 -5.094126711215009 
Ne -2.118287242678558 -5.754196753768468 4.54505007017531 
13 
 
Ne 1.7938477915706568 -3.835109772906559 0.5061093592759239 
Ne 5.407379273980724 -1.5303039289077398 -2.725439737847751 
Ne -1.2474294536810353 -0.31439588540759145 4.186731977652835 
Ne 4.685119047701522 0.34966851122029763 3.19147667596973 
Ne 3.2092839680271745 -4.320856225511937 6.397039190840796 
Ne -1.8288219256732787 -8.216910940524768 -1.0141959818809803 
Ne 7.106606626332797 -5.378087288112931 1.642210115135249 
Ne 2.816579410369302 -8.893919306407065 2.945691692495797 
Ne 3.8172913104242747 -8.07764186088268 -2.7964416492486284 
Ne -3.7260849983324182 -2.7668127049340887 -0.5685674375759869 
Ne 0.8614242783356911 1.761415921020762 -1.0790330296337716 
Ne 0.04476366523607414 -3.4966325100730677 -5.094126711215009 
Ne -2.118287242678558 -5.754196753768468 4.54505007017531 
13 
 
Ne -3.756879919045485 -4.816515121744445 4.5220050309998 
Ne 2.751512733629602 0.8219387663771153 3.090481186693575 
Ne 0.36395004867941744 -5.859855391175853 1.2655931620342145 
Ne -6.492945768536342 4.422215654253381 1.4259163570157634 
Ne -0.006638384001515063 -1.237270750067303 7.4863472843944106 
Ne -0.877179106953407 3.9699557748823238 -0.7369501938968199 
Ne -2.9327059531894215 -0.3168778215782052 1.331661453068938 
Ne -5.427075983553923 1.872290410794374 -3.394699117717438 
Ne 0.27315287605062977 -1.4984274904118093 -3.1074228849518173 
Ne -4.679876896552417 -5.016368172267704 -1.7380578041778887 
Ne -6.121589526893094 0.7868658526318795 5.969875010791703 
Ne -2.124735808521966 4.835687844345852 5.300504003923518 
Ne -8.158378868083851 -1.6348870475738564 1.1745734899444593 
13 
 
Ne -0.29394723970573056 5.695974513657014 -2.3272715074636903 
Ne 6.292240418451416 -4.429601612476263 -3.758260702510958 
Ne 4.290249677611897 3.6852568169028093 -6.0978940116066225 
Ne -1.4702478449876502 1.9389456050288427 -6.26745668279419 
Ne 4.468489471209675 4.791866282564936 0.8378438377586337 
Ne -1.4696977533612336 -4.350176318209301 0.7337972798526939 
Ne -1.514171684015257 1.7975774518803596 1.6845434526143541 
Ne 3.6898422439739975 -1.628676162177507 -8.25798221495213 
Ne -0.8625352262705575 -4.747329171117227 -5.284679254362183 
Ne -0.30595583189464276 7.6601831590093985 3.462872176565213 
Ne 2.6231846706793647 -0.2869784278442382 -2.0012361360766864 
Ne 7.774454491263582 1.2650521484368997 -2.449968160246335 
Ne -4.403764999133144 -0.30041610067146285 -2.233157106348745 
13 
 
Ne -5.715722055463664 2.729076185629453 -4.082169824625913 
Ne 0.7451752237422056 -3.9254462028254813 -5.940961028355752 
Ne 4.556903388267745 5.173355512759557 -3.0690243857589885 
Ne 4.278846326083748 2.786637648370365 2.056395136362372 
Ne -3.091248652385507 -1.902338365042203 -1.4595704294416298 
Ne 0.4436621421479291 7.6691229251001625 -5.382837537952648 
Ne 1.1121497090587897 -1.672957201595896 3.803490510793223 
Ne -5.303839211753079 2.1245346249493116 2.6161133076839405 
Ne 3.3299534977126073 -0.8724515093341434 -1.6357548793631789 
Ne -0.4673411954366109 1.6750490478834243 -5.895150902915414 
Ne -0.3337201272094338 4.080059519749026 5.332171109365516 
Ne -3.625350533358659 7.7060236158683635 -0.5668365874656767 
Ne -0.5937234744981074 3.029555347019721 -0.7068077348138312 
13 
 
Ne -3.4965948636194026 -0.8236801254162036 1.7568551960817076 
Ne 5.0061819030325125 4.155007978984108 0.2768745852760273 
Ne 1.9773822019728529 -0.6403153166989186 2.8567006809775704 
Ne -0.8009148358203059 4.294012705785953 2.94102059023006 
Ne 4.655708520214512 -5.802445530516052 3.52360583547944 
Ne 3.505695329927982 -2.5023926909432146 8.206658020197949 
Ne 5.596699912167084 -1.3073561734214336 -1.6578716465673493 
Ne 7.457744396849801 -0.43155490820485715 3.709940635458448 
Ne -0.9020988558152967 -4.926219478544908 5.228202782654294 
Ne 3.6945603522588337 3.4654327844308455 6.452159668454389 
Ne 0.16946532383118382 1.5078193964087543 -2.7500127861426176 
Ne -1.3335241091524204 0.5206712805847747 7.152179469371516 
Ne 0.5217959186072532 -4.483342510214812 -0.6814257412293667 
13 
 
Ne -4.222470011427001 2.1777766005407324 5.324733535424192 
Ne -0.1715178430763047 -7.151265983961412 2.815105933727602 
Ne 1.2742073630730364 -4.050186561917438 -2.5082568002017918 
Ne -4.00506462025489 -5.405782582139401 -1.0417944692842172 
Ne -6.539857423301191 -0.266145406850454 0.37475376972435753 
Ne -0.7781161005053526 -2.413598298908825 7.333877492252917 
Ne 1.7971164357800637 2.3529231432493383 4.6365724784691125 
Ne -5.408081370841845 -4.0016223408023235 4.243838696269692 
Ne -2.5841860587049448 4.506190555221745 0.275426463328169 
Ne -2.614419189604539 -0.24885294349838902 -4.041204317903046 
Ne -1.2726151010782378 -1.4805795307335154 1.7882886016826172 
Ne 3.909535770887405 -2.9271989655157045 2.8723035233017025 
Ne 2.7431636813446474 1.7340177994198778 -0.8275952336794484 
13 
 
Ne 3.7389404158722455 -0.9061349516490329 -1.6619961907290726 
Ne -2.587835485786832 -6.452579855504309 3.5761044551877577 
Ne -6.584048801030486 -5.376660290143065 -0.19182102677508855 
Ne 1.7154015136157255 -1.913952458141076 4.153909377560706 
Ne -3.549434722225109 -5.169285930388507 -5.722196450052336 
Ne -1.8787846270692226 -8.635398347085019 -1.5104472264778281 
Ne -0.36128770306374025 0.08120543686920823 -5.408968146942536 
Ne -1.3516011412512743 -3.1424344232984835 -1.052795064690033 
Ne 2.8628582404758345 -6.774389539016898 0.7220433140979968 
Ne -4.619861573896232 -0.8879414994035556 2.9125826698056048 
Ne 2.1337688972184865 -6.01594962439099 -5.2787604231455045 
Ne -5.812168123488651 -0.30032971054858526 -2.931713167321101 
Ne -0.613105851031464 2.2371772650944974 0.05005053739013442 
13 
 
Ne 8.125637188915102 -1.282289148250546 -1.7368204855089027 
Ne 3.633875198060335 -5.207548667932346 -2.6990955102889145 
Ne 7.964201264954814 -0.5649423495025481 4.091888253291255 
Ne 2.8175085587235857 -1.5461891163915498 1.7268491366380507 
Ne -2.191415606045711 -2.9601642871419465 -0.6015793747132839 
Ne 3.2827372013772287 -4.097878815495984 6.934215347914545 
Ne 0.8761759915361693 -6.667493981963487 2.2549991719453124 
Ne 6.6330795745742215 -5.546209620224607 2.1802216554930403 
Ne 3.0975173138438943 2.0215971806197834 6.194585280848944 
Ne -1.6321145607819179 -1.4339675154101226 5.2483874439108185 
Ne -1.0565673579585129 2.592630068939764 0.6240697463550464 
Ne 5.214219657321978 3.342864009151213 0.19108278625246736 
Ne 2.0552036368052025 0.11930879156585172 -3.493962788642464 
13 
 
Ne -0.17777530320836188 -0.20090152304960696 -2.7212632049878462 
Ne 9.046727552341913 -2.2259560157879132 -0.9618743793544408 
Ne -0.5867985941909242 3.260271424889306 2.1697562039327645 
Ne 5.113842023966033 5.602681382763596 3.4778883934313107 
Ne 5.21314455778785 -0.08551253061063094 -4.650912755608618 
Ne 3.555338801141139 -4.883676525340345 -1.4361676754534454 
Ne 4.244556858399777 0.488662596671784 0.6226632112731927 
Ne 8.947644515477876 1.389523170244377 3.851052824147519 
Ne 8.606038664095298 4.054563009733334 -1.2765843651456048 
Ne 6.109845637578108 -3.947798967659764 3.7172993022148564 
Ne 2.9082303344912197 0.5601430545442451 6.1147075922323895 
Ne 0.01668101123057543 -2.9733986577393203 2.7918117908282643 
Ne 3.157142242552457 5.266357947786072 -1.8864250732349734 
