38 
 
Ne 6.129025197154575 5.498997888986273 -0.2722834398537909 
Ne 4.035542007525633 -10.380627896910305 -3.340061978112448 
Ne 6.555104873601247 -1.4161916874686646 -6.30024995947245 
Ne -7.894967019704948 -0.886718693265495 -2.840905117464339 
Ne -1.4750303191656244 -6.424960242761786 -8.586074580704691 
Ne 3.201308447284783 -8.882466362596022 6.92978395988949 
Ne 2.5574715002402666 1.289658701864932 8.66186451695311 
Ne -1.6681216773977645 3.557537819916449 -6.235686774015143 
Ne -2.884786872009328 5.029833798826318 3.9556448220279266 
Ne 9.309360713102127 -3.891490768972046 2.850600413187294 
Ne -5.957385396274985 -4.229453321335468 6.6236533669562725 
Ne -8.078554076276331 -4.98956422093967 1.2950389280029708 
Ne 2.7769164619788302 5.545472116201337 4.652017558503224 
Ne -2.4640063960976715 -8.698941133149594 6.056782487289051 
Ne -4.9786443099463575 -9.820178667387854 0.3389101393454032 
Ne 6.2610744479732885 -9.814931401133624 1.6416122284428636 
Ne -3.2203259208977006 1.2448501446316385 7.854702917795472 
Ne -4.590981406384937 -1.1384106420067894 -7.343159105340779 
Ne -5.660042803041361 4.347022167256982 -1.0229216760886446 
Ne 4.185589935791048 -6.721198866030004 -7.45531680026457 
Ne 6.07977333155205 -3.7378577215514492 7.645673113500555 
Ne 4.1300223105624365 3.7942375433562074 -5.684536712437575 
Ne 9.32315291624124 0.5511388407223705 -1.3048888566440573 
Ne -1.4205851799402645 -10.46039349260803 -4.228855274676657 
Ne -8.58946986072133e-5 -3.6266029682670684 7.121632636261066 
Ne 0.4385714142712376 -9.746588063401283 0.9944663540675159 
Ne 6.900130313947884 -4.899970759303439 -2.0765107927460207 
Ne 1.036773911866354 -1.1399968610824815 -6.820946913814347 
Ne -5.308920941587771 0.10274834268872442 2.4981150739118845 
Ne 6.155482093425139 0.8929957377414792 3.874382622487383 
Ne -4.65225686468042 -5.433726792848896 -3.8749058153763487 
Ne 0.47976063534078617 4.7319168586572395 -0.7523233508505972 
Ne 1.3641075413944874 -5.003827423066789 -2.980422010002947 
Ne -2.315093427459552 -4.742038250860447 1.7553709313929236 
Ne -2.15567249238224 -0.40770203140525024 -2.065196267447105 
Ne 0.4792124827621744 0.2371990263814634 3.1825269585871583 
Ne 3.6549112707573337 -0.01904534394973549 -1.4900728583384046 
Ne 3.502370348025687 -4.797188057160688 2.3302391572429912 
