38 
 
Ne 9.091777643561585 3.9529259972282196 0.8461279308238174 
Ne 1.6060689237897638 -2.701529308272087 -10.667484488086401 
Ne 7.425820941177983 4.442400644306375 -7.754402694433643 
Ne -5.921697910564099 5.999254417390182 -0.4232969261130198 
Ne -2.5381933701770096 4.462838322916645 -10.135254727486627 
Ne 1.102756479182983 -8.922924122593185 -2.8724517545895427 
Ne 3.9556093016621015 -4.09061238005959 4.944146135324996 
Ne 0.9790079024383332 10.079901229375874 -2.2414808369834183 
Ne 0.8754158218057233 3.0015855818374986 6.553991224659913 
Ne 8.631683317479427 -4.609673059710758 -3.9699560970742223 
Ne -5.934638203378341 -3.6111560903244486 2.3564250923875933 
Ne -8.139215003856972 0.635011860658249 -0.7212598286121973 
Ne 6.14570482287889 1.622836401483533 5.426949767081525 
Ne -4.432694750418414 -7.030287097539075 -2.0215584890557876 
Ne -6.964611554632549 -2.9599224128318213 -5.264595858338809 
Ne 3.6762190849094107 -6.842154048633707 -7.0437293187680226 
Ne -1.349158743847941 -2.691439408609454 6.231584489645895 
Ne -3.469416218118153 8.254715071256133 -5.288955401643752 
Ne -1.548651250543014 7.772863666781426 3.2153325680539053 
Ne 3.274552566088231 2.6412721846805294 -10.828253682315832 
Ne 5.6702732983019235 -7.001868622866889 -0.13247975359952788 
Ne 6.377054318876311 8.001877840908522 -3.0971567034911636 
Ne 10.13087932623116 0.8738149397760264 -4.101529266390134 
Ne -4.088781532546507 -0.9793106575875801 -9.624084518750452 
Ne -0.1755476517223587 -5.290049274394573 1.416910809791089 
Ne -1.393812177714997 -4.733236448099741 -6.0842133761401955 
Ne 5.687664603428044 -0.9272952726275868 -7.382339080200204 
Ne 1.9620711704088598 6.243280319969667 -6.670762876920799 
Ne -3.6577086876931517 2.0602898408179726 2.9033083769221397 
Ne 7.305594008466548 -1.356760658874485 0.5750044383418745 
Ne -5.170141298634388 2.7126721146734876 -5.190684187323765 
Ne 3.4956319107503964 6.052549499123251 1.7310877145781762 
Ne 0.24378688583938699 0.7410342483243817 -6.336243453611869 
Ne -2.7889496621837138 -1.056159768164992 -1.817636453238591 
Ne -0.4928798834757092 4.3968261558640815 -2.0250583051675624 
Ne 1.8933148472732055 0.31796518501889315 1.5577520440311974 
Ne 4.8057357652320585 2.4694444734490064 -2.802702983441301 
Ne 3.068518584592767 -3.0464191767423148 -3.0086265525497407 
