13 
 
Ne -5.715722055463664 2.729076185629453 -4.082169824625913 
Ne 0.7451752237422056 -3.9254462028254813 -5.940961028355752 
Ne 4.556903388267745 5.173355512759557 -3.0690243857589885 
Ne 4.278846326083748 2.786637648370365 2.056395136362372 
Ne -3.091248652385507 -1.902338365042203 -1.4595704294416298 
Ne 0.4436621421479291 7.6691229251001625 -5.382837537952648 
Ne 1.1121497090587897 -1.672957201595896 3.803490510793223 
Ne -5.303839211753079 2.1245346249493116 2.6161133076839405 
Ne 3.3299534977126073 -0.8724515093341434 -1.6357548793631789 
Ne -0.4673411954366109 1.6750490478834243 -5.895150902915414 
Ne -0.3337201272094338 4.080059519749026 5.332171109365516 
Ne -3.625350533358659 7.7060236158683635 -0.5668365874656767 
Ne -0.5937234744981074 3.029555347019721 -0.7068077348138312 
13 
 
Ne -0.8390756534751943 7.58944722190166 2.1667777105329704 
Ne -5.706378849503103 3.93117589159976 2.8355538011365615 
Ne -2.0606048370577006 6.051064835906791 7.7165337520127 
Ne 3.475649545386935 5.547431752253614 5.768178931567577 
Ne -0.6428188852004404 1.9787447214527627 3.897088576413257 
Ne 3.7586517054635906 4.399669182678512 0.0019603805696671583 
Ne -0.3330804354783329 -3.472665495617182 5.62643597105012 
Ne -4.227631892916529 -1.738224003855674 1.4646407989410801 
Ne 1.8408896843504075 -1.4090348335312501 0.11009491237035604 
Ne 4.61539981040713 -0.10497875143128865 4.929070855075792 
Ne -1.748965766415053 3.18464539572863 -1.6134586041013979 
Ne 1.0982364094857735 1.5541883893754944 9.162905567907906 
Ne -4.691188075560277 0.7046824641238335 7.671568033058343 
13 
 
Ne -0.7764713410136141 -1.9558408956987066 -6.359421648068927 
Ne 1.9698180411077129 -0.9851882992809322 3.5500421296110023 
Ne 0.3550683003888332 1.3956968464058852 -1.8526637616975865 
Ne -3.0876092719892223 -2.9503738932128387 -1.2833915876988042 
Ne 2.420748075558132 5.117583917982777 2.1340309469111336 
Ne -5.266396230600358 2.5463646291915714 -2.5369373944070492 
Ne -1.7009252969556063 6.570012574617553 -1.101886448620985 
Ne 3.9938523963964188 5.702293150240279 -3.294482814267652 
Ne 6.0526889542208515 1.0087310037438544 -0.7953765369555894 
Ne 2.613423769506047 -3.7780028711364135 -1.6751061063160952 
Ne 4.008724354123202 0.8681201995410417 -6.099806694926207 
Ne -2.7327865281226233 2.1277990639109476 2.8125376798472064 
Ne -0.8768493969831512 4.502787085243163 -6.6052484489452254 
13 
 
Ne 8.125637188915102 -1.282289148250546 -1.7368204855089027 
Ne 3.633875198060335 -5.207548667932346 -2.6990955102889145 
Ne 7.964201264954814 -0.5649423495025481 4.091888253291255 
Ne 2.8175085587235857 -1.5461891163915498 1.7268491366380507 
Ne -2.191415606045711 -2.9601642871419465 -0.6015793747132839 
Ne 3.2827372013772287 -4.097878815495984 6.934215347914545 
Ne 0.8761759915361693 -6.667493981963487 2.2549991719453124 
Ne 6.6330795745742215 -5.546209620224607 2.1802216554930403 
Ne 3.0975173138438943 2.0215971806197834 6.194585280848944 
Ne -1.6321145607819179 -1.4339675154101226 5.2483874439108185 
Ne -1.0565673579585129 2.592630068939764 0.6240697463550464 
Ne 5.214219657321978 3.342864009151213 0.19108278625246736 
Ne 2.0552036368052025 0.11930879156585172 -3.493962788642464 
13 
 
Ne 1.7938477915706568 -3.835109772906559 0.5061093592759239 
Ne 5.407379273980724 -1.5303039289077398 -2.725439737847751 
Ne -1.2474294536810353 -0.31439588540759145 4.186731977652835 
Ne 4.685119047701522 0.34966851122029763 3.19147667596973 
Ne 3.2092839680271745 -4.320856225511937 6.397039190840796 
Ne -1.8288219256732787 -8.216910940524768 -1.0141959818809803 
Ne 7.106606626332797 -5.378087288112931 1.642210115135249 
Ne 2.816579410369302 -8.893919306407065 2.945691692495797 
Ne 3.8172913104242747 -8.07764186088268 -2.7964416492486284 
Ne -3.7260849983324182 -2.7668127049340887 -0.5685674375759869 
Ne 0.8614242783356911 1.761415921020762 -1.0790330296337716 
Ne 0.04476366523607414 -3.4966325100730677 -5.094126711215009 
Ne -2.118287242678558 -5.754196753768468 4.54505007017531 
13 
 
Ne -0.17777530320836188 -0.20090152304960696 -2.7212632049878462 
Ne 9.046727552341913 -2.2259560157879132 -0.9618743793544408 
Ne -0.5867985941909242 3.260271424889306 2.1697562039327645 
Ne 5.113842023966033 5.602681382763596 3.4778883934313107 
Ne 5.21314455778785 -0.08551253061063094 -4.650912755608618 
Ne 3.555338801141139 -4.883676525340345 -1.4361676754534454 
Ne 4.244556858399777 0.488662596671784 0.6226632112731927 
Ne 8.947644515477876 1.389523170244377 3.851052824147519 
Ne 8.606038664095298 4.054563009733334 -1.2765843651456048 
Ne 6.109845637578108 -3.947798967659764 3.7172993022148564 
Ne 2.9082303344912197 0.5601430545442451 6.1147075922323895 
Ne 0.01668101123057543 -2.9733986577393203 2.7918117908282643 
Ne 3.157142242552457 5.266357947786072 -1.8864250732349734 
13 
 
Ne 3.7389404158722455 -0.9061349516490329 -1.6619961907290726 
Ne -2.587835485786832 -6.452579855504309 3.5761044551877577 
Ne -6.584048801030486 -5.376660290143065 -0.19182102677508855 
Ne 1.7154015136157255 -1.913952458141076 4.153909377560706 
Ne -3.549434722225109 -5.169285930388507 -5.722196450052336 
Ne -1.8787846270692226 -8.635398347085019 -1.5104472264778281 
Ne -0.36128770306374025 0.08120543686920823 -5.408968146942536 
Ne -1.3516011412512743 -3.1424344232984835 -1.052795064690033 
Ne 2.8628582404758345 -6.774389539016898 0.7220433140979968 
Ne -4.619861573896232 -0.8879414994035556 2.9125826698056048 
Ne 2.1337688972184865 -6.01594962439099 -5.2787604231455045 
Ne -5.812168123488651 -0.30032971054858526 -2.931713167321101 
Ne -0.613105851031464 2.2371772650944974 0.05005053739013442 
13 
 
Ne -0.7764713410136141 -1.9558408956987066 -6.359421648068927 
Ne 1.9698180411077129 -0.9851882992809322 3.5500421296110023 
Ne 0.3550683003888332 1.3956968464058852 -1.8526637616975865 
Ne -3.0876092719892223 -2.9503738932128387 -1.2833915876988042 
Ne 2.420748075558132 5.117583917982777 2.1340309469111336 
Ne -5.266396230600358 2.5463646291915714 -2.5369373944070492 
Ne -1.7009252969556063 6.570012574617553 -1.101886448620985 
Ne 3.9938523963964188 5.702293150240279 -3.294482814267652 
Ne 6.0526889542208515 1.0087310037438544 -0.7953765369555894 
Ne 2.613423769506047 -3.7780028711364135 -1.6751061063160952 
Ne 4.008724354123202 0.8681201995410417 -6.099806694926207 
Ne -2.7327865281226233 2.1277990639109476 2.8125376798472064 
Ne -0.8768493969831512 4.502787085243163 -6.6052484489452254 
13 
 
Ne 1.7938477915706568 -3.835109772906559 0.5061093592759239 
Ne 5.407379273980724 -1.5303039289077398 -2.725439737847751 
Ne -1.2474294536810353 -0.31439588540759145 4.186731977652835 
Ne 4.685119047701522 0.34966851122029763 3.19147667596973 
Ne 3.2092839680271745 -4.320856225511937 6.397039190840796 
Ne -1.8288219256732787 -8.216910940524768 -1.0141959818809803 
Ne 7.106606626332797 -5.378087288112931 1.642210115135249 
Ne 2.816579410369302 -8.893919306407065 2.945691692495797 
Ne 3.8172913104242747 -8.07764186088268 -2.7964416492486284 
Ne -3.7260849983324182 -2.7668127049340887 -0.5685674375759869 
Ne 0.8614242783356911 1.761415921020762 -1.0790330296337716 
Ne 0.04476366523607414 -3.4966325100730677 -5.094126711215009 
Ne -2.118287242678558 -5.754196753768468 4.54505007017531 
13 
 
Ne -3.4965948636194026 -0.8236801254162036 1.7568551960817076 
Ne 5.0061819030325125 4.155007978984108 0.2768745852760273 
Ne 1.9773822019728529 -0.6403153166989186 2.8567006809775704 
Ne -0.8009148358203059 4.294012705785953 2.94102059023006 
Ne 4.655708520214512 -5.802445530516052 3.52360583547944 
Ne 3.505695329927982 -2.5023926909432146 8.206658020197949 
Ne 5.596699912167084 -1.3073561734214336 -1.6578716465673493 
Ne 7.457744396849801 -0.43155490820485715 3.709940635458448 
Ne -0.9020988558152967 -4.926219478544908 5.228202782654294 
Ne 3.6945603522588337 3.4654327844308455 6.452159668454389 
Ne 0.16946532383118382 1.5078193964087543 -2.7500127861426176 
Ne -1.3335241091524204 0.5206712805847747 7.152179469371516 
Ne 0.5217959186072532 -4.483342510214812 -0.6814257412293667 
