38 
 
Ne 7.544128978589488 -4.271467201152437 2.074759095107089 
Ne 1.5143326013296718 10.19491773890778 4.003554150033899 
Ne 5.431025273251708 6.194129940648337 4.738916709592214 
Ne -1.3088543192066113 -7.194698607129829 6.207112071196555 
Ne -3.2028907885123212 7.93001258926482 6.941554119394974 
Ne -6.81478083117515 4.04507760540507 -2.5676472280643567 
Ne 1.9509793383821175 5.991196396513435 0.12434385639244269 
Ne -2.9529702046476487 0.8833834522692803 -5.836080661151853 
Ne 8.234815491942685 1.250003208332065 4.307303345834967 
Ne -1.394129297758957 -1.9989145986322618 3.339830445093806 
Ne 3.690694254723846 -0.1283063044340807 1.5233078749002975 
Ne 8.545721891912198 -0.5752768881552025 -2.36821593173332 
Ne 3.126154101553368 -3.3669049960495365 6.277360947927754 
Ne 0.06958471535117354 -8.274892384191727 -4.283502132613568 
Ne 3.1268489667807216 1.2016653677303528 -3.7869278048999857 
Ne 0.29028735151623863 3.591105583863341 4.92455413031691 
Ne -6.316765687619645 -2.8153854834513887 5.75083292536979 
Ne 6.004091624041777 10.146219102887331 0.44264646531219004 
Ne 0.571120828681223 11.121488632258833 -1.6157681883563497 
Ne 1.1844813701291164 -3.496079975115781 -7.116716993604387 
Ne -1.550900388989082 0.2163457893896731 8.898154571438718 
Ne -3.282014551018615 7.633952199291103 1.261955281804564 
Ne -4.169825889259784 -6.4485991823887 0.9832387576688317 
Ne 4.358340054968297 1.6311773132022047 8.789304523711174 
Ne 4.226272381619494 7.567642363067387 -4.742302428672383 
Ne 1.6548161754726827 3.4334550572381044 -8.760058841269135 
Ne -5.57430268871814 3.165955645484621 4.285328335019174 
Ne -0.9346442041437188 -2.7373895127500973 -1.9375764065802934 
Ne 4.690113565441581 -4.753790653491148 -3.057698501053247 
Ne 7.20012618801102 4.804865759909869 -0.4712796672153708 
Ne -5.4622012028698785 -4.9229100162580295 -4.682747897139094 
Ne 6.636696155607174 -1.6570987342043593 -7.831640162657716 
Ne 1.6961596023194216 -6.755987093594136 1.6165893803498683 
Ne 8.292817790788929 4.16388911744012 -6.325408857162095 
Ne 2.0170582643209642 6.789344863583129 9.549044936718182 
Ne -1.4417450777285181 6.333718607284725 -4.526784811266292 
Ne -1.7731502985149485 2.283771967579548 -0.10596004746871249 
Ne -6.11649950154583 -0.9948599410702823 0.011655371240630269 
