13 
 
Ne -0.17777530320836188 -0.20090152304960696 -2.7212632049878462 
Ne 9.046727552341913 -2.2259560157879132 -0.9618743793544408 
Ne -0.5867985941909242 3.260271424889306 2.1697562039327645 
Ne 5.113842023966033 5.602681382763596 3.4778883934313107 
Ne 5.21314455778785 -0.08551253061063094 -4.650912755608618 
Ne 3.555338801141139 -4.883676525340345 -1.4361676754534454 
Ne 4.244556858399777 0.488662596671784 0.6226632112731927 
Ne 8.947644515477876 1.389523170244377 3.851052824147519 
Ne 8.606038664095298 4.054563009733334 -1.2765843651456048 
Ne 6.109845637578108 -3.947798967659764 3.7172993022148564 
Ne 2.9082303344912197 0.5601430545442451 6.1147075922323895 
Ne 0.01668101123057543 -2.9733986577393203 2.7918117908282643 
Ne 3.157142242552457 5.266357947786072 -1.8864250732349734 
13 
 
Ne -3.4965948636194026 -0.8236801254162036 1.7568551960817076 
Ne 5.0061819030325125 4.155007978984108 0.2768745852760273 
Ne 1.9773822019728529 -0.6403153166989186 2.8567006809775704 
Ne -0.8009148358203059 4.294012705785953 2.94102059023006 
Ne 4.655708520214512 -5.802445530516052 3.52360583547944 
Ne 3.505695329927982 -2.5023926909432146 8.206658020197949 
Ne 5.596699912167084 -1.3073561734214336 -1.6578716465673493 
Ne 7.457744396849801 -0.43155490820485715 3.709940635458448 
Ne -0.9020988558152967 -4.926219478544908 5.228202782654294 
Ne 3.6945603522588337 3.4654327844308455 6.452159668454389 
Ne 0.16946532383118382 1.5078193964087543 -2.7500127861426176 
Ne -1.3335241091524204 0.5206712805847747 7.152179469371516 
Ne 0.5217959186072532 -4.483342510214812 -0.6814257412293667 
13 
 
Ne -3.4910239022895366 -0.036104524135389934 -0.5603879202635698 
Ne -2.3779388053805497 3.6790903096409955 3.7506559105621062 
Ne -7.447502026503695 3.9940429197453233 0.7945528873720787 
Ne -4.848847088466798 -4.319357049305463 -4.309906926698986 
Ne -0.0799731544866142 -1.768158480535133 4.11701479911247 
Ne -3.179645532810646 -5.42729482320213 0.795691335512105 
Ne 1.2962393352562744 -2.79321903417089 -2.0306292796670364 
Ne 4.10778332258794 2.43825102832088 5.874446208847668 
Ne -0.6112310431538954 1.1072161012802064 -6.096929642396371 
Ne -8.29904246058885 -1.9966605254514234 -0.7127400819581085 
Ne -5.938979181928987 -0.6068138793465416 5.183089797269532 
Ne 1.365247222743251 4.351936048234461 -1.3963056122047777 
Ne -5.996116276106917 2.4617029122602303 -5.044525349948433 
13 
 
Ne 1.710441717759567 5.985018088770242 -0.6436779048144681 
Ne 4.489908713204653 -0.8554699227269871 5.712369095833673 
Ne 0.28653476558939106 1.0922393564162407 2.4613790006647127 
Ne 1.502416177807957 0.7127805929628928 -3.051388220932981 
Ne -2.038917713205265 6.208511323222119 4.38295104172939 
Ne -4.89344427019218 0.7691704911966671 4.315716824695682 
Ne -3.877106152957732 3.3451500352918506 -0.9404349456609316 
Ne 5.986858042507729 1.4857455907724255 0.3305726942967081 
Ne 2.8396580647751004 -3.6639397703456758 1.0333335255398155 
Ne 3.638595263686555 4.715592759264476 4.960255202605114 
Ne -0.20443190680959084 1.2990759701932835 8.108410316876169 
Ne -2.7658110116514893 -2.582646337493975 -0.18039555439822647 
Ne -1.1530096172568178 -3.749242682647186 4.979278610347519 
13 
 
Ne 8.125637188915102 -1.282289148250546 -1.7368204855089027 
Ne 3.633875198060335 -5.207548667932346 -2.6990955102889145 
Ne 7.964201264954814 -0.5649423495025481 4.091888253291255 
Ne 2.8175085587235857 -1.5461891163915498 1.7268491366380507 
Ne -2.191415606045711 -2.9601642871419465 -0.6015793747132839 
Ne 3.2827372013772287 -4.097878815495984 6.934215347914545 
Ne 0.8761759915361693 -6.667493981963487 2.2549991719453124 
Ne 6.6330795745742215 -5.546209620224607 2.1802216554930403 
Ne 3.0975173138438943 2.0215971806197834 6.194585280848944 
Ne -1.6321145607819179 -1.4339675154101226 5.2483874439108185 
Ne -1.0565673579585129 2.592630068939764 0.6240697463550464 
Ne 5.214219657321978 3.342864009151213 0.19108278625246736 
Ne 2.0552036368052025 0.11930879156585172 -3.493962788642464 
13 
 
Ne 1.8778457202926924 3.5563761639841633 0.3876079569724363 
Ne 4.684749950190521 -2.3456716243327733 -3.2834159065636954 
Ne 5.669538564512617 5.756702548803023 -2.889920451893812 
Ne -3.6750269742907045 1.9473964096289444 0.689004041530168 
Ne -0.2867735333994094 -5.947744896196446 -2.671733928310281 
Ne 1.201188465140483 -2.3050256642848717 2.0728558256344596 
Ne -6.1365385810240305 -3.1765957899010746 -1.3196319262199383 
Ne 0.15584004427119566 -3.4631055689519257 -8.316679866093358 
Ne -0.6406960048994532 -0.2452576714745745 -3.652548922436236 
Ne -5.108668264986296 2.7467504946503976 -4.9193946653160125 
Ne -5.479227705289784 -2.5604753253376913 -7.2664470039076425 
Ne 0.2837665149439858 5.581037215061338 -4.537358544666518 
Ne 3.6309667659020426 1.3074397239858295 -8.168814279028366 
13 
 
Ne -5.715722055463664 2.729076185629453 -4.082169824625913 
Ne 0.7451752237422056 -3.9254462028254813 -5.940961028355752 
Ne 4.556903388267745 5.173355512759557 -3.0690243857589885 
Ne 4.278846326083748 2.786637648370365 2.056395136362372 
Ne -3.091248652385507 -1.902338365042203 -1.4595704294416298 
Ne 0.4436621421479291 7.6691229251001625 -5.382837537952648 
Ne 1.1121497090587897 -1.672957201595896 3.803490510793223 
Ne -5.303839211753079 2.1245346249493116 2.6161133076839405 
Ne 3.3299534977126073 -0.8724515093341434 -1.6357548793631789 
Ne -0.4673411954366109 1.6750490478834243 -5.895150902915414 
Ne -0.3337201272094338 4.080059519749026 5.332171109365516 
Ne -3.625350533358659 7.7060236158683635 -0.5668365874656767 
Ne -0.5937234744981074 3.029555347019721 -0.7068077348138312 
13 
 
Ne -0.030012501812154868 -0.5061325932831959 -1.5874153854646482 
Ne -2.601637218768668 -4.8822621557724375 -3.5684486039009893 
Ne 5.69361859081889 -0.6959051315827735 -1.3300317183870016 
Ne 1.3186250445983476 -5.420736021664685 0.4297267067517424 
Ne 2.751754688676463 -0.5103621512276643 3.6942827582223052 
Ne -0.792710154032184 -0.09078086233392085 -7.334028803743844 
Ne -5.5323133782849485 0.5856634022158419 -2.068295813044149 
Ne 2.7921337113034412 4.295979832513037 -0.19572992832512978 
Ne 2.9061866883440017 -3.9270579514308084 -5.38281728576039 
Ne 3.660319745059178 2.903591455329232 -5.345982045997773 
Ne -1.462650198062044 4.543980824336338 -3.922080656089263 
Ne -2.0786099485052336 2.606796592822823 2.406357275839125 
Ne -3.464760090068443 -3.203291499862971 2.2783970581412922 
13 
 
Ne -1.0962315930475492 1.2731108316661914 8.267592690367286 
Ne -6.379520931908188 0.33597355774487614 5.846997562546027 
Ne -2.7867004001369615 7.21767886598755 1.0210049983756584 
Ne -1.1463087890759553 -3.4818662565204455 4.204717354355139 
Ne -4.4562844748674175 2.4140256934429325 -3.1602268987823243 
Ne -4.128795095555953 5.853741171526446 6.3042424204807785 
Ne -5.965622671091545 -1.9179603112379469 0.2846306616420651 
Ne 1.4548206014376843 5.395645265970811 5.556094543934069 
Ne -2.224631435762115 2.1881753048578187 2.2595009230532783 
Ne -0.5863822775714549 -2.160337998733863 -2.5223174384754197 
Ne 1.4275195030916628 4.293684154590787 -2.1953905102649784 
Ne 3.1803575859336113 0.1991182002260178 2.3945596593949343 
Ne -7.860523647297826 3.238937579929186 1.3583942208272235 
13 
 
Ne 3.7389404158722455 -0.9061349516490329 -1.6619961907290726 
Ne -2.587835485786832 -6.452579855504309 3.5761044551877577 
Ne -6.584048801030486 -5.376660290143065 -0.19182102677508855 
Ne 1.7154015136157255 -1.913952458141076 4.153909377560706 
Ne -3.549434722225109 -5.169285930388507 -5.722196450052336 
Ne -1.8787846270692226 -8.635398347085019 -1.5104472264778281 
Ne -0.36128770306374025 0.08120543686920823 -5.408968146942536 
Ne -1.3516011412512743 -3.1424344232984835 -1.052795064690033 
Ne 2.8628582404758345 -6.774389539016898 0.7220433140979968 
Ne -4.619861573896232 -0.8879414994035556 2.9125826698056048 
Ne 2.1337688972184865 -6.01594962439099 -5.2787604231455045 
Ne -5.812168123488651 -0.30032971054858526 -2.931713167321101 
Ne -0.613105851031464 2.2371772650944974 0.05005053739013442 
