38 
 
Ne -1.2517761631976116 -8.490549277805052 1.8645158427440993 
Ne 0.5445234319428345 3.27215903350828 -8.468927165751472 
Ne 2.949848978219072 -5.901927369445839 -5.143984229358698 
Ne 7.0551860301343075 4.560598861131982 5.451930842628363 
Ne 6.988605106743543 3.101911988688722 -4.5676749104589955 
Ne -7.01052782802204 5.831775624105845 -2.4433698716634003 
Ne -6.321132282231727 0.1147783694262687 6.334280712499403 
Ne 7.2587890702269755 -3.356788358479992 3.456650766701659 
Ne -0.6748168544062201 -1.2872144212305798 9.072127723464407 
Ne -6.940456159759747 -2.1298357645254082 -4.150746725069498 
Ne -1.8205794181188355 8.804654355412342 5.533209430170087 
Ne 3.5981974246554884 8.848777930652599 4.517402393629387 
Ne -3.67158693385796 -5.147014068749069 6.2705768353525535 
Ne -3.639061153623925 9.673589471646958 0.2114669752184241 
Ne 1.733499943684196 10.671859274614759 -0.7972582709816054 
Ne -4.801858903847284 2.7994328548472027 -6.860712765404351 
Ne -3.9103634159774447 4.674480568086048 9.005408249109088 
Ne 9.506611463498682 1.6029124633073766 1.0264700373831304 
Ne 4.985857213460226 -0.10272308388202547 7.668413887154293 
Ne 4.146818906134579 -1.0500546514050948 -7.992190532248273 
Ne -8.957752126542067 0.7680485953202139 0.9168945772896322 
Ne 4.117549798822353 -7.511490108843618 0.1993820368641844 
Ne -2.8077486599434796 -6.505610942280024 -3.3475686660967523 
Ne 4.1262236607148015 7.640302077449336 -5.690629228588317 
Ne -5.18419848214646 4.606849583678349 3.188527160498841 
Ne -1.4219140082862858 7.137345030328836 -4.465465329875319 
Ne -1.3076998394374226 -1.6292413067866014 -6.079542773441873 
Ne 5.7705279722088285 -1.9867088027570083 -2.3123497183634276 
Ne 1.393929530429996 4.029738083222791 6.758294972869522 
Ne -4.713024200200793 -3.3687922904272516 0.9515096299866507 
Ne 5.858850089637529 6.269192082053974 -0.10288270846529438 
Ne 1.653636003986472 -4.244142551637168 5.050849011841631 
Ne 1.6860059265719576 2.4350113664316457 -3.2431723129424848 
Ne 0.41810212430605187 5.577595767088912 1.3664560917836794 
Ne 3.8676421572256596 0.8463480587761637 2.2380723351418195 
Ne -1.6618930954278974 0.40141137932862114 3.781009870348664 
Ne 0.7586206095160534 -3.0023407496273466 -0.5907022864159637 
Ne -3.637967721665948 1.8664704793590974 -1.228739251614548 
