38 
 
Ne 7.647666767212562 -5.283660394921838 5.7956368079504115 
Ne -0.635721534701679 6.476534681883669 -2.1149121120279744 
Ne 4.587869997982158 2.7008745940475576 7.004597010864857 
Ne -7.861221574295094 -7.017943292842608 2.0111264729367346 
Ne -6.490768142231055 2.6706479960649556 4.181016974400979 
Ne 2.9584818465538363 0.6952333563755181 -9.045502455629292 
Ne 6.88181157546028 -7.295336962864934 -4.437466933419756 
Ne -1.6011867605396275 -5.158678920988095 8.78063259357272 
Ne 1.2218019570605476 -11.557687595683431 1.06201244708691 
Ne 8.409259902199507 2.2079675202455595 -0.8367162583309625 
Ne -2.529879762710467 -7.600608465556431 -7.400798039274266 
Ne -7.359950442939151 -5.7263565423458225 -4.7044115947768965 
Ne 7.134604419845635 -9.23006113745443 1.661589076110552 
Ne -1.9340553898869899 -2.3110576174844137 -9.170545541270506 
Ne -6.6768204413072265 -0.2288428896227314 -5.491332029350902 
Ne 4.748883990995089 4.1930883344922485 -4.953417344027919 
Ne 1.3387475751980265 -10.176550125345601 -4.3392741311444 
Ne -6.3296345437939765 -2.831355873799488 5.985209252591328 
Ne -2.9906262470740126 -9.12245508595365 4.4627873871028045 
Ne -1.5691587330068404 5.951228262221882 3.7202401064636312 
Ne 7.356739296037679 -1.5942852827818723 -5.451736816149291 
Ne 3.7286811163018183 -2.6164788397522134 8.78618883603681 
Ne 9.185943946638073 0.31384016857381564 4.37085145563234 
Ne -6.290066213168979 4.030542495973041 -1.7243876053113798 
Ne 2.4314290341664555 -4.608437682646626 -6.618996027425794 
Ne -1.310296460208726 2.21768959756652 -5.705303729673226 
Ne 3.492194016348726 3.810421565040098 1.2052041684998802 
Ne -1.0998360926590687 0.6398197632914665 6.653434935086648 
Ne -3.5281266918919907 -8.204450060189258 -1.312478764690158 
Ne 7.539668229237456 -3.1846663464686022 0.0819962800085614 
Ne -6.714628528057082 -1.5756998935198498 -0.0331411259633588 
Ne 2.122513143560132 -7.415227247394786 4.92795742653464 
Ne -1.7735005661052103 0.9920026230696704 0.8327016686440377 
Ne -2.240548426844566 -3.2768488817271355 -3.4653488737321685 
Ne -2.1516021323655647 -4.234846204919895 2.5029569502974303 
Ne 2.511829763901565 -5.695191977652518 -0.4814255736314896 
Ne 3.1184578996610277 -1.392659115528113 3.222494693962326 
Ne 2.786531560109748 -0.3516411419770839 -2.405199108604255 
