38 
 
Ne 0.16802326087142477 6.06965671989023 -7.87365262307373 
Ne -3.3519247237819427 0.5146536474910208 4.745585986172962 
Ne -0.6575418521694685 -0.5552910169215273 -8.366998700228338 
Ne -7.559071073745714 -2.1198233678795737 7.4411367592554205 
Ne 0.7094682267476677 -8.444951160883363 4.576437520390562 
Ne 2.388669832663593 0.6034057524471761 6.399777736694573 
Ne -8.464320293592491 1.0222390142973397 2.2597619233938637 
Ne -5.28492104447947 -10.433556424449884 1.3112187562802604 
Ne 5.60267161486739 -1.2020176716974296 0.37417528852230875 
Ne 1.225897877085707 -2.6221086130520628 -3.379159875401683 
Ne -5.916083445254184 5.09960421698276 6.3457183334952765 
Ne -4.363257345974992 -5.243365168448848 3.4815443315012478 
Ne -4.345906111385528 -1.2853306155326047 -1.3292997271329139 
Ne 0.6078512760152281 1.8983903400448836 0.4215059511583551 
Ne -1.214779458923055 -7.027513041226327 -1.0390936703367306 
Ne -8.075781490608627 3.2471357255979494 -3.0399560407576933 
Ne 2.657621818200041 -7.37014218820935 -6.153263521211086 
Ne -9.057133922820821 7.159446524565322 1.277682074909427 
Ne -2.183700476023931 3.026719501603101 -4.02574852532482 
Ne 0.661014996608001 -3.2348379590110796 2.6173884492797477 
Ne 3.9930392082226156 2.356439111454563 -4.806361002412707 
Ne -6.555067368078538 -0.6535074565988073 -6.977233773848829 
Ne -7.07758205195846 -6.312918591093216 -1.884084415220513 
Ne -2.3558113244644807 1.8061229691704392 9.883014867757803 
Ne -4.320025835380955 9.897930763394841 2.1963458570823975 
Ne 4.220468600504311 -6.6600758826011806 -0.446201983183566 
Ne -10.517357152953089 -1.8428985777391307 -2.456862226867726 
Ne -9.964163285871342 -4.824642171980276 2.728546468762318 
Ne 6.73277439975415 -2.7888929535465943 -5.238270195066323 
Ne 5.123655768191957 -4.509510692740803 5.996758651299462 
Ne -4.010792752052795 8.409518024086529 -3.3422021476814696 
Ne -3.952777548525345 4.441087640065538 0.8339961001284752 
Ne -0.7443750845625506 -3.827268413790914 7.9985247194010745 
Ne 5.7343433526410035 4.2446505514709605 2.5285397640977165 
Ne -5.436967627834744 4.940956780286602 -8.19613301055258 
Ne -3.3992919454717363 -5.185467947105404 -5.851196995145712 
Ne 0.23961981948140015 5.552494857746239 5.077622162812362 
Ne 1.6724071155634272 6.713360421146824 -2.2287964749555003 
