13 
 
Ne -0.8390756534751943 7.58944722190166 2.1667777105329704 
Ne -5.706378849503103 3.93117589159976 2.8355538011365615 
Ne -2.0606048370577006 6.051064835906791 7.7165337520127 
Ne 3.475649545386935 5.547431752253614 5.768178931567577 
Ne -0.6428188852004404 1.9787447214527627 3.897088576413257 
Ne 3.7586517054635906 4.399669182678512 0.0019603805696671583 
Ne -0.3330804354783329 -3.472665495617182 5.62643597105012 
Ne -4.227631892916529 -1.738224003855674 1.4646407989410801 
Ne 1.8408896843504075 -1.4090348335312501 0.11009491237035604 
Ne 4.61539981040713 -0.10497875143128865 4.929070855075792 
Ne -1.748965766415053 3.18464539572863 -1.6134586041013979 
Ne 1.0982364094857735 1.5541883893754944 9.162905567907906 
Ne -4.691188075560277 0.7046824641238335 7.671568033058343 
13 
 
Ne -4.222470011427001 2.1777766005407324 5.324733535424192 
Ne -0.1715178430763047 -7.151265983961412 2.815105933727602 
Ne 1.2742073630730364 -4.050186561917438 -2.5082568002017918 
Ne -4.00506462025489 -5.405782582139401 -1.0417944692842172 
Ne -6.539857423301191 -0.266145406850454 0.37475376972435753 
Ne -0.7781161005053526 -2.413598298908825 7.333877492252917 
Ne 1.7971164357800637 2.3529231432493383 4.6365724784691125 
Ne -5.408081370841845 -4.0016223408023235 4.243838696269692 
Ne -2.5841860587049448 4.506190555221745 0.275426463328169 
Ne -2.614419189604539 -0.24885294349838902 -4.041204317903046 
Ne -1.2726151010782378 -1.4805795307335154 1.7882886016826172 
Ne 3.909535770887405 -2.9271989655157045 2.8723035233017025 
Ne 2.7431636813446474 1.7340177994198778 -0.8275952336794484 
13 
 
Ne -4.222470011427001 2.1777766005407324 5.324733535424192 
Ne -0.1715178430763047 -7.151265983961412 2.815105933727602 
Ne 1.2742073630730364 -4.050186561917438 -2.5082568002017918 
Ne -4.00506462025489 -5.405782582139401 -1.0417944692842172 
Ne -6.539857423301191 -0.266145406850454 0.37475376972435753 
Ne -0.7781161005053526 -2.413598298908825 7.333877492252917 
Ne 1.7971164357800637 2.3529231432493383 4.6365724784691125 
Ne -5.408081370841845 -4.0016223408023235 4.243838696269692 
Ne -2.5841860587049448 4.506190555221745 0.275426463328169 
Ne -2.614419189604539 -0.24885294349838902 -4.041204317903046 
Ne -1.2726151010782378 -1.4805795307335154 1.7882886016826172 
Ne 3.909535770887405 -2.9271989655157045 2.8723035233017025 
Ne 2.7431636813446474 1.7340177994198778 -0.8275952336794484 
13 
 
Ne -5.178567689737501 -2.2763379499576937 7.4389066624535864 
Ne 1.382470320047294 4.819517416725493 4.908902614499753 
Ne 2.5714897888632384 1.322545107898591 -0.7368527742213873 
Ne 1.257930103408639 -4.349889320058634 0.9331201313638775 
Ne 0.37548455808102305 0.8387226513783795 8.843904277255616 
Ne -2.935613772923679 -0.7319837204190773 -1.8271608332855405 
Ne -3.102358087651395 4.554035746893734 0.9200966512918924 
Ne -7.131308438979401 0.2745665496981265 2.7026015726582693 
Ne 3.9494345796362036 -0.7351060930727652 4.640636042721138 
Ne -0.06779473723747509 -4.700985057341135 6.72592190657121 
Ne -4.635919838038719 -4.666614985097853 2.243970087012689 
Ne -4.124412144391207 4.104160151476688 6.728191360756161 
Ne -1.3727256998772381 -0.1325955082783044 3.6235663760263543 
13 
 
Ne -3.4910239022895366 -0.036104524135389934 -0.5603879202635698 
Ne -2.3779388053805497 3.6790903096409955 3.7506559105621062 
Ne -7.447502026503695 3.9940429197453233 0.7945528873720787 
Ne -4.848847088466798 -4.319357049305463 -4.309906926698986 
Ne -0.0799731544866142 -1.768158480535133 4.11701479911247 
Ne -3.179645532810646 -5.42729482320213 0.795691335512105 
Ne 1.2962393352562744 -2.79321903417089 -2.0306292796670364 
Ne 4.10778332258794 2.43825102832088 5.874446208847668 
Ne -0.6112310431538954 1.1072161012802064 -6.096929642396371 
Ne -8.29904246058885 -1.9966605254514234 -0.7127400819581085 
Ne -5.938979181928987 -0.6068138793465416 5.183089797269532 
Ne 1.365247222743251 4.351936048234461 -1.3963056122047777 
Ne -5.996116276106917 2.4617029122602303 -5.044525349948433 
13 
 
Ne -5.715722055463664 2.729076185629453 -4.082169824625913 
Ne 0.7451752237422056 -3.9254462028254813 -5.940961028355752 
Ne 4.556903388267745 5.173355512759557 -3.0690243857589885 
Ne 4.278846326083748 2.786637648370365 2.056395136362372 
Ne -3.091248652385507 -1.902338365042203 -1.4595704294416298 
Ne 0.4436621421479291 7.6691229251001625 -5.382837537952648 
Ne 1.1121497090587897 -1.672957201595896 3.803490510793223 
Ne -5.303839211753079 2.1245346249493116 2.6161133076839405 
Ne 3.3299534977126073 -0.8724515093341434 -1.6357548793631789 
Ne -0.4673411954366109 1.6750490478834243 -5.895150902915414 
Ne -0.3337201272094338 4.080059519749026 5.332171109365516 
Ne -3.625350533358659 7.7060236158683635 -0.5668365874656767 
Ne -0.5937234744981074 3.029555347019721 -0.7068077348138312 
13 
 
Ne -4.032576915136586 -7.961653008339012 -0.17626308849304273 
Ne -0.2062556553532579 -2.9876385224773765 -2.2948682254714377 
Ne 2.5858078998058147 1.5240169951372118 -0.6752653540537614 
Ne 2.132905243790804 -5.008522519927705 -7.10714621549682 
Ne -1.6899078064397017 -0.4651261453252443 2.3156569789305363 
Ne 1.919257633921647 6.631520278476667 -2.9754094698045845 
Ne -3.221749351046279 -6.323892469926514 -6.280830931053059 
Ne -2.718449739392412 2.7318779247505294 -3.092913313485983 
Ne 2.073266877560318 -8.257391042871854 -2.264983928067309 
Ne 3.26809349608231 1.2965280713957532 -6.599004170613082 
Ne -1.9733174664689495 -0.946310027906027 -7.735263378142485 
Ne -5.74405694777579 -2.80097333754213 -2.656755902130084 
Ne 5.643548134570766 -2.74763999050545 0.4502955866017874 
13 
 
Ne 6.800319419779441 1.3073648213278577 -2.807504748654823 
Ne -0.27144643867794843 -6.579616877409951 -5.221585381706014 
Ne -1.9378331432890614 3.608223875151869 -5.640279376854921 
Ne 4.093158432803334 -3.456881271060506 -7.239064939085652 
Ne -4.415252362297701 -2.431240482270352 -4.271580969413969 
Ne 0.8180123142055286 -1.1319183442600398 -3.4705339175638885 
Ne -3.265555454169393 1.1608937715114183 0.1067738437686975 
Ne 1.916746040959838 4.300482752443442 -1.3550226410778958 
Ne 3.369421967552408 2.8183239074345448 -7.310359945301572 
Ne -1.0764878779986242 -0.9167083253809674 -8.929142358642142 
Ne 4.2182019530130885 -5.915891669136884 -0.1939134214246955 
Ne -1.3627400578114521 -5.129259274540073 0.04317082059800029 
Ne 3.027112339963409 -0.7326715575573266 1.462369989059996 
13 
 
Ne -2.099661365772987 -3.9370013709574723 -7.654018195113079 
Ne 2.590101655347961 3.588322212012353 -2.0027460856896453 
Ne -7.329504679040128 0.43794488463777587 -1.4356213398051574 
Ne -1.82102382180475 1.0459408621427213 0.4002701524139354 
Ne -1.2096755451375054 1.22648512895937 -4.944524052768119 
Ne 1.3749368625713796 -3.5409196191597427 0.1402672655531203 
Ne 7.957201247468465 -3.4209813530418334 -1.373528380343843 
Ne 1.0100030053870097 -7.558026463463302 -4.400505241014424 
Ne -1.506712657635862 -5.924851999979326 4.3909594851043785 
Ne -4.296827778193646 -4.411067407689172 -2.4397533759906023 
Ne 5.1806479205818725 -0.9622429377032644 3.6623587836213707 
Ne 2.8444293534702436 -2.513769235265719 -5.247168312994737 
Ne -6.376963032523867 -3.1449837896763224 5.4174036931856255 
13 
 
Ne -1.9866911544516 -2.9702024742190583 -6.050554926088227 
Ne 1.4762220695298318 -6.925785757417803 2.2385199462963135 
Ne 3.1232268648188786 -6.208942227806412 -4.308502956432721 
Ne -3.841185101122775 -5.251661458817852 2.6937385223509227 
Ne 3.0023073382716827 0.15644295872582234 -4.728305223262397 
Ne -5.6058461969727285 -1.866508969753693 -2.2073938101523947 
Ne 0.9122440453942889 -1.5053098134973553 4.998178166777745 
Ne -2.1662854844999617 2.7799875373184286 -2.8446533399205394 
Ne -3.2701830603418447 -7.256781997713918 -2.6971480335388573 
Ne -2.947540475262066 1.5467761835151872 2.612834558211932 
Ne 2.6930800743546226 2.2446620609524537 0.6327564745732239 
Ne 5.604506954530006 -2.75185676554149 0.6459935626583522 
Ne -0.11893989722000371 -2.2533483460591492 -0.7086220659641739 
