38 
 
Ne -4.0043151537765995 3.5819631470292492 4.531769337263434 
Ne -7.151506932739797 -4.193018054112742 4.6821839496268725 
Ne 4.859296476679901 9.462322807106778 -0.000944807865770475 
Ne 7.996025265414376 0.2688742289893022 -2.4632948692733887 
Ne -6.963254502508045 0.33057553972567344 0.7682457492797949 
Ne -0.16551113329381634 7.251549209719789 2.342702460652007 
Ne -2.9815143690932513 -0.0809550676372858 8.853770022662971 
Ne -5.120166352680962 -2.3421986198086024 -10.139048633556289 
Ne 2.759678292208672 -1.8258025604454033 0.1721325635032956 
Ne 1.2656714254422419 -0.8277456730365784 -10.371577380314317 
Ne 2.5392506666560775 0.6997759799470209 10.253462317255952 
Ne 6.238457839051427 6.795535116007352 -4.896538754301249 
Ne 0.5328550414690806 7.018864100653907 -3.481427203269412 
Ne -0.788521875157174 -6.046870830788222 -9.621126132640725 
Ne -1.8427786148714778 -2.01194378675939 3.33470677506476 
Ne 3.455843264677275 -3.3633632706865053 5.619362925866418 
Ne 2.7969382780541427 1.2815472839445465 -4.781203035531117 
Ne -2.6102279937495068 2.1828716695529673 -7.672203352544176 
Ne 2.703011028962464 5.184532668083006 -9.240069506814773 
Ne -6.9592005369862475 -1.0621512907984432 -4.688865947822956 
Ne 5.3527318468183145 -6.537133063167822 0.9227568716936434 
Ne -1.5944043857371857 -2.5064793859039645 -5.215273526029843 
Ne -4.761850877595228 -4.905683255831555 -0.31433149330942456 
Ne -5.247523660429489 -6.6986172355272355 -5.964306081480824 
Ne 7.448124270061954 2.6446717775996924 -8.096044755097697 
Ne 0.5893085290125476 -7.131892287509205 -3.029819345654336 
Ne 9.37842271660119 4.978003332254238 0.4309746602772164 
Ne 4.813931694604357 -3.9866816646777234 -5.4514636872635505 
Ne 1.7736513935853646 2.079378788041608 4.672777165806524 
Ne -10.4794392613991 -4.0285509081471735 -0.7638075887109617 
Ne -1.4589420671876974 1.990252182558929 -0.8179184005777742 
Ne -1.6889998563338675 -5.741344104777406 7.855174025989949 
Ne 3.892348951988503 4.027416981228806 -0.027109486685356118 
Ne 5.31445768514309 6.182083000684745 5.1328063906306 
Ne -0.3054657316016529 -7.6693235279532 2.686066348924325 
Ne 0.11509185240253413 5.489254020424962 8.714243112530381 
Ne 7.639921139854966 0.5748274799942352 3.3293314820135573 
Ne -5.5811245103200235 5.5848809989382415 -1.036103886233606 
