38 
 
Ne 5.4145787867910045 1.464490560426398 -2.9195857795164315 
Ne -3.2794668642865714 3.7052896448793184 1.7100541814568717 
Ne -5.162404660847537 5.849187401847624 -3.6502182695011998 
Ne -1.3483993378188892 -0.5636991004200969 5.672448920185472 
Ne 10.017362570285675 4.929456749223104 -2.1457025447140206 
Ne 8.883837462376091 1.9378137254013228 -7.215320313533022 
Ne 10.133783870593252 -1.5346452077951431 -2.368914088586071 
Ne 5.225303206369872 6.577117299316177 -5.473266034892227 
Ne 4.3915028104254334 -2.566740001407737 5.273743381930081 
Ne -1.224777148971985 -10.537279223369989 2.6379087393439584 
Ne 2.8654858609627962 1.1143176724531851 -7.658522196367057 
Ne 6.094109446147941 -3.5163911924025553 -6.199858752158949 
Ne -1.9816967898378803 -1.0641429077888753 -10.912469132129944 
Ne -1.3067913655946175 4.816979005810648 -9.183461663870924 
Ne -1.553247244886116 -6.037820435676766 7.343816955091791 
Ne 8.906100007939195 -5.724049700258762 3.532375532623058 
Ne 1.6969811455244965 -5.09215037512826 -9.243604191556832 
Ne -2.3401450895455898 -6.919489186674805 -2.217668115684491 
Ne -3.784704289312662 -5.404590093974743 -7.558927601038134 
Ne -7.139258081568291 0.5019268304468947 4.71309289696634 
Ne 5.096101342287537 -3.6488791674670216 -0.619550679614924 
Ne 5.265482015065467 -9.882610931077487 0.9242867351334564 
Ne -0.9070892419031096 9.129656932637571 -4.698489908917902 
Ne 1.8402136675820782 1.1371409090647167 1.4826943721660903 
Ne 8.831874827719359 -7.408080778365982 -2.1697231017855056 
Ne 3.315369024173271 -8.047538889208939 -4.3868116543032025 
Ne 4.432958931066498 6.119419301648323 0.21222605742693793 
Ne 2.8766427418963074 3.3969233780301695 6.507206805060795 
Ne 0.5668211379964222 -2.332679035999843 -3.8162848699907164 
Ne -3.263804608228818 -1.4111782958735983 0.10425151808870811 
Ne -4.246659878112795 0.0891360386487769 -5.162394629872708 
Ne -8.601522732655992 1.382737776202011 -0.9307912989204169 
Ne -8.02562609299618 -4.337740559110574 -2.1691257952366607 
Ne 0.2418905461657129 3.9397740817472755 -3.2312083054699205 
Ne 7.462263360451118 0.9916343711906186 2.325511000880023 
Ne -5.2487022346642656 -5.942792701017895 2.749091980727931 
Ne 0.629706407924806 -5.135219539942225 1.9896167439727017 
Ne 3.455446216686974 -8.321447895750582 5.876495200950601 
